#total energy=-3.71124314 eV

CRYSTAL
PRIMVEC
        75.9000000            0.00000000           0.00000000
        0.00000000            75.9000000           0.00000000
        0.00000000            0.00000000           75.9000000
PRIMCOORD
320 1
 C   3.730710       8.701380       4.175350           0.00000       0.00000       0.00000
 H   4.174020       9.211520       3.288260           0.00000       0.00000       0.00000
 H   3.339240       9.438520       4.886010           0.00000       0.00000       0.00000
 H   4.541750       8.191700       4.657800           0.00000       0.00000       0.00000
 H   2.905410       8.044160       3.908920           0.00000       0.00000       0.00000
 C -0.1776380       10.46260       9.518480           0.00000       0.00000       0.00000
 H -0.3341600       11.51990       9.772880           0.00000       0.00000       0.00000
 H -0.1216730       9.899850       10.45730           0.00000       0.00000       0.00000
 H  0.7146650       10.32440       8.931200           0.00000       0.00000       0.00000
 H  -1.037500       10.09700       8.975960           0.00000       0.00000       0.00000
 C   8.806220       17.08340       20.30810           0.00000       0.00000       0.00000
 H   9.270780       16.12710       20.10840           0.00000       0.00000       0.00000
 H   7.897970       16.92150       20.85820           0.00000       0.00000       0.00000
 H   9.424410       17.73860       20.88960           0.00000       0.00000       0.00000
 H   8.590640       17.55710       19.35670           0.00000       0.00000       0.00000
 C   8.657460       14.07650       5.010970           0.00000       0.00000       0.00000
 H   7.688520       14.03840       4.474460           0.00000       0.00000       0.00000
 H   8.555900       13.80720       6.080040           0.00000       0.00000       0.00000
 H   9.357330       13.37800       4.525960           0.00000       0.00000       0.00000
 H   9.052930       15.07910       4.921350           0.00000       0.00000       0.00000
 C   9.241450       12.31930       17.62310           0.00000       0.00000       0.00000
 H   10.13450       11.70010       17.58980           0.00000       0.00000       0.00000
 H   8.631480       12.18020       16.71200           0.00000       0.00000       0.00000
 H   8.622520       12.01830       18.46180           0.00000       0.00000       0.00000
 H   9.527540       13.36370       17.77060           0.00000       0.00000       0.00000
 C   5.104060       17.45250       14.67660           0.00000       0.00000       0.00000
 H   4.148610       17.60100       14.18390           0.00000       0.00000       0.00000
 H   5.550820       18.41090       14.88720           0.00000       0.00000       0.00000
 H   4.952780       16.95620       15.64420           0.00000       0.00000       0.00000
 H   5.806010       16.90660       14.05520           0.00000       0.00000       0.00000
 C   2.774670       13.99740       20.39870           0.00000       0.00000       0.00000
 H   1.903830       14.42400       20.86580           0.00000       0.00000       0.00000
 H   2.449820       13.12010       19.80600           0.00000       0.00000       0.00000
 H   3.241720       14.74020       19.77050           0.00000       0.00000       0.00000
 H   3.481360       13.65690       21.16040           0.00000       0.00000       0.00000
 C   9.855800       6.323050       13.95800           0.00000       0.00000       0.00000
 H   9.559050       6.727000       12.99120           0.00000       0.00000       0.00000
 H   10.47580       7.023210       14.54190           0.00000       0.00000       0.00000
 H   10.37180       5.390930       13.80940           0.00000       0.00000       0.00000
 H   8.956570       6.135430       14.51530           0.00000       0.00000       0.00000
 C -0.6072170       7.453930       13.34930           0.00000       0.00000       0.00000
 H  -1.035620       8.344510       12.93850           0.00000       0.00000       0.00000
 H  -1.252870       7.110020       14.16690           0.00000       0.00000       0.00000
 H -0.5470700       6.679850       12.57090           0.00000       0.00000       0.00000
 H  0.3853190       7.577260       13.75520           0.00000       0.00000       0.00000
 C   6.124910       14.40400       8.060460           0.00000       0.00000       0.00000
 H   6.787520       14.48720       8.938390           0.00000       0.00000       0.00000
 H   6.572720       14.94070       7.213020           0.00000       0.00000       0.00000
 H   5.983120       13.37790       7.748290           0.00000       0.00000       0.00000
 H   5.165520       14.81070       8.338220           0.00000       0.00000       0.00000
 C   13.34300       12.34630       10.91030           0.00000       0.00000       0.00000
 H   12.99720       11.34620       11.14190           0.00000       0.00000       0.00000
 H   14.39090       12.30650       10.74470           0.00000       0.00000       0.00000
 H   12.84470       12.73200       10.04830           0.00000       0.00000       0.00000
 H   13.03720       12.96030       11.75150           0.00000       0.00000       0.00000
 C   3.899310       13.93470       13.61020           0.00000       0.00000       0.00000
 H   3.381390       14.85250       13.38950           0.00000       0.00000       0.00000
 H   4.662980       14.12710       14.38270           0.00000       0.00000       0.00000
 H   4.369360       13.60510       12.71290           0.00000       0.00000       0.00000
 H   3.226180       13.17220       14.00080           0.00000       0.00000       0.00000
 C   13.41930       9.682170       14.26480           0.00000       0.00000       0.00000
 H   12.95300       10.01670       15.16100           0.00000       0.00000       0.00000
 H   12.75080       8.986420       13.78830           0.00000       0.00000       0.00000
 H   14.31700       9.122890       14.58580           0.00000       0.00000       0.00000
 H   13.65960       10.53280       13.64900           0.00000       0.00000       0.00000
 C   8.979040       5.964850       20.43600           0.00000       0.00000       0.00000
 H   8.188170       6.501260       19.88820           0.00000       0.00000       0.00000
 H   9.107220       6.334900       21.45550           0.00000       0.00000       0.00000
 H   9.934970       6.084640       19.92090           0.00000       0.00000       0.00000
 H   8.661660       4.924660       20.48030           0.00000       0.00000       0.00000
 C   9.341270       7.139180       7.382590           0.00000       0.00000       0.00000
 H   9.235090       6.060020       7.607130           0.00000       0.00000       0.00000
 H   8.359630       7.578060       7.146980           0.00000       0.00000       0.00000
 H   9.790100       7.690040       8.209880           0.00000       0.00000       0.00000
 H   9.954290       7.197950       6.504860           0.00000       0.00000       0.00000
 C   1.091200       18.15440       13.49910           0.00000       0.00000       0.00000
 H  5.0818000E-02   18.31170       13.78480           0.00000       0.00000       0.00000
 H   1.459060       17.26820       14.00490           0.00000       0.00000       0.00000
 H   1.122150       18.00260       12.40660           0.00000       0.00000       0.00000
 H   1.684100       19.04870       13.76180           0.00000       0.00000       0.00000
 C  0.5242650       14.44180       11.77730           0.00000       0.00000       0.00000
 H  5.9073601E-02   13.71650       11.11030           0.00000       0.00000       0.00000
 H   1.552030       14.54150       11.46040           0.00000       0.00000       0.00000
 H  0.5342930       14.05180       12.79440           0.00000       0.00000       0.00000
 H  2.5813499E-02   15.39680       11.80100           0.00000       0.00000       0.00000
 C   5.769420       11.94050       19.78670           0.00000       0.00000       0.00000
 H   6.481200       12.40670       20.49960           0.00000       0.00000       0.00000
 H   5.276560       12.73570       19.24500           0.00000       0.00000       0.00000
 H   6.335670       11.23410       19.18020           0.00000       0.00000       0.00000
 H   5.003210       11.40760       20.33610           0.00000       0.00000       0.00000
 C -0.2152770       8.956490       16.90570           0.00000       0.00000       0.00000
 H  0.5394540       8.406960       16.32980           0.00000       0.00000       0.00000
 H -0.3316800       8.479300       17.85850           0.00000       0.00000       0.00000
 H  0.1136640       9.982350       17.04560           0.00000       0.00000       0.00000
 H  -1.178970       8.970500       16.41310           0.00000       0.00000       0.00000
 C   1.330910       10.07140       20.48510           0.00000       0.00000       0.00000
 H   2.231680       10.34160       19.96990           0.00000       0.00000       0.00000
 H  0.5005900       10.79210       20.24690           0.00000       0.00000       0.00000
 H   1.050140       9.065900       20.14930           0.00000       0.00000       0.00000
 H   1.512200       10.06390       21.55350           0.00000       0.00000       0.00000
 C  -1.734330       15.35330       15.37460           0.00000       0.00000       0.00000
 H  -2.596430       16.02240       15.28620           0.00000       0.00000       0.00000
 H -0.9734270       15.81550       16.01560           0.00000       0.00000       0.00000
 H  -1.292010       15.19210       14.40910           0.00000       0.00000       0.00000
 H  -2.082090       14.42200       15.82230           0.00000       0.00000       0.00000
 C   5.307270       6.047310       6.978270           0.00000       0.00000       0.00000
 H   4.589020       6.845960       7.180690           0.00000       0.00000       0.00000
 H   4.801850       5.131210       6.715490           0.00000       0.00000       0.00000
 H   5.950330       5.945420       7.847790           0.00000       0.00000       0.00000
 H   5.905580       6.327630       6.135600           0.00000       0.00000       0.00000
 C   2.000070       12.08890       16.62490           0.00000       0.00000       0.00000
 H   2.977170       12.61750       16.58700           0.00000       0.00000       0.00000
 H   1.136980       12.73890       16.73410           0.00000       0.00000       0.00000
 H   2.038660       11.39260       17.46200           0.00000       0.00000       0.00000
 H   1.916360       11.46080       15.71010           0.00000       0.00000       0.00000
 C   7.591360       16.79280       11.48670           0.00000       0.00000       0.00000
 H   7.913380       17.07160       12.49710           0.00000       0.00000       0.00000
 H   8.452180       16.57820       10.85200           0.00000       0.00000       0.00000
 H   6.931470       15.93330       11.50280           0.00000       0.00000       0.00000
 H   7.081260       17.62130       11.05080           0.00000       0.00000       0.00000
 C   4.943080       4.333080       10.32780           0.00000       0.00000       0.00000
 H   4.268120       3.668990       10.85310           0.00000       0.00000       0.00000
 H   4.479440       4.646650       9.400150           0.00000       0.00000       0.00000
 H   5.850320       3.791590       10.10210           0.00000       0.00000       0.00000
 H   5.137290       5.215950       10.93560           0.00000       0.00000       0.00000
 C  -2.149870       7.144560       9.480640           0.00000       0.00000       0.00000
 H  -2.205580       7.260750       8.412070           0.00000       0.00000       0.00000
 H  -2.921270       6.445390       9.778130           0.00000       0.00000       0.00000
 H  -1.187740       6.738530       9.746690           0.00000       0.00000       0.00000
 H  -2.277930       8.100920       9.962790           0.00000       0.00000       0.00000
 C   10.88630       15.57700       7.950270           0.00000       0.00000       0.00000
 H   10.70100       14.93540       7.076940           0.00000       0.00000       0.00000
 H   11.95400       15.58960       8.203230           0.00000       0.00000       0.00000
 H   10.33300       15.20880       8.822710           0.00000       0.00000       0.00000
 H   10.55520       16.59030       7.731710           0.00000       0.00000       0.00000
 C   11.32710       8.366280       10.79230           0.00000       0.00000       0.00000
 H   11.89990       9.076510       11.38200           0.00000       0.00000       0.00000
 H   10.27420       8.475480       11.02940           0.00000       0.00000       0.00000
 H   11.49000       8.578210       9.734390           0.00000       0.00000       0.00000
 H   11.60470       7.330070       11.02540           0.00000       0.00000       0.00000
 C   2.068890       16.23130       16.79140           0.00000       0.00000       0.00000
 H   2.884760       16.02090       17.46070           0.00000       0.00000       0.00000
 H   2.159560       15.60830       15.88410           0.00000       0.00000       0.00000
 H   2.113950       17.30420       16.53350           0.00000       0.00000       0.00000
 H   1.137160       16.03510       17.34880           0.00000       0.00000       0.00000
 C   5.413900       8.073200       21.58380           0.00000       0.00000       0.00000
 H   4.312660       8.151670       21.53690           0.00000       0.00000       0.00000
 H   5.888480       8.784730       20.89530           0.00000       0.00000       0.00000
 H   5.810690       8.336960       22.54710           0.00000       0.00000       0.00000
 H   5.726250       7.069660       21.33190           0.00000       0.00000       0.00000
 C  -1.106080       11.61510       13.32460           0.00000       0.00000       0.00000
 H  -1.408880       12.60960       13.06710           0.00000       0.00000       0.00000
 H -0.5966810       11.67420       14.28560           0.00000       0.00000       0.00000
 H  -1.959060       10.94430       13.36960           0.00000       0.00000       0.00000
 H -0.3857880       11.27130       12.58610           0.00000       0.00000       0.00000
 C   7.811260       13.87260       13.77980           0.00000       0.00000       0.00000
 H   6.998340       14.59350       13.77080           0.00000       0.00000       0.00000
 H   8.055130       13.66940       14.83970           0.00000       0.00000       0.00000
 H   8.673390       14.35550       13.29790           0.00000       0.00000       0.00000
 H   7.527280       12.97920       13.22100           0.00000       0.00000       0.00000
 C   2.807140       16.17590       6.588260           0.00000       0.00000       0.00000
 H   2.581130       16.57380       5.600230           0.00000       0.00000       0.00000
 H   2.168940       16.64440       7.361020           0.00000       0.00000       0.00000
 H   3.834340       16.48090       6.809670           0.00000       0.00000       0.00000
 H   2.697340       15.09280       6.596500           0.00000       0.00000       0.00000
 C  0.4004920       11.63660       4.969020           0.00000       0.00000       0.00000
 H -0.2706500       12.44210       5.242170           0.00000       0.00000       0.00000
 H  0.2655430       10.79260       5.650600           0.00000       0.00000       0.00000
 H  0.2123730       11.32370       3.946310           0.00000       0.00000       0.00000
 H   1.427910       11.98700       5.010000           0.00000       0.00000       0.00000
 C   5.780340       7.086200       14.18430           0.00000       0.00000       0.00000
 H   6.302810       6.267010       13.66100           0.00000       0.00000       0.00000
 H   6.152020       8.012510       13.75090           0.00000       0.00000       0.00000
 H   4.708700       7.079450       13.95970           0.00000       0.00000       0.00000
 H   6.021640       7.049510       15.23430           0.00000       0.00000       0.00000
 C   8.534150       9.235930       4.518010           0.00000       0.00000       0.00000
 H   8.620460       9.544300       5.548320           0.00000       0.00000       0.00000
 H   7.915060       9.984010       4.031100           0.00000       0.00000       0.00000
 H   9.530390       9.242020       4.073400           0.00000       0.00000       0.00000
 H   8.118730       8.244270       4.403160           0.00000       0.00000       0.00000
 C   5.281390       12.06460       4.937670           0.00000       0.00000       0.00000
 H   4.574910       11.90500       5.744900           0.00000       0.00000       0.00000
 H   6.258140       12.25800       5.384210           0.00000       0.00000       0.00000
 H   5.353140       11.19250       4.275370           0.00000       0.00000       0.00000
 H   4.998090       12.94450       4.362080           0.00000       0.00000       0.00000
 C   9.434450       17.40050       15.68760           0.00000       0.00000       0.00000
 H   9.732710       17.62520       14.67450           0.00000       0.00000       0.00000
 H   8.731180       18.16630       16.02710           0.00000       0.00000       0.00000
 H   10.32040       17.45970       16.33400           0.00000       0.00000       0.00000
 H   9.033320       16.36730       15.75940           0.00000       0.00000       0.00000
 C   6.201990       14.60940       17.11210           0.00000       0.00000       0.00000
 H   6.558140       13.61050       16.83520           0.00000       0.00000       0.00000
 H   6.724390       15.01060       18.01590           0.00000       0.00000       0.00000
 H   5.110280       14.54330       17.29410           0.00000       0.00000       0.00000
 H   6.399640       15.29250       16.25830           0.00000       0.00000       0.00000
 C   9.411760       12.32180       10.42910           0.00000       0.00000       0.00000
 H   9.565730       12.73370       11.43260           0.00000       0.00000       0.00000
 H   10.21840       12.63160       9.774410           0.00000       0.00000       0.00000
 H   9.378290       11.23810       10.49450           0.00000       0.00000       0.00000
 H   8.427840       12.64670       10.02130           0.00000       0.00000       0.00000
 C   7.546630       10.40120       7.926670           0.00000       0.00000       0.00000
 H   6.950550       9.682010       7.358540           0.00000       0.00000       0.00000
 H   8.013530       11.17130       7.301540           0.00000       0.00000       0.00000
 H   8.343740       9.860280       8.433110           0.00000       0.00000       0.00000
 H   6.968190       10.91030       8.703780           0.00000       0.00000       0.00000
 C   9.494010       10.05690       14.18560           0.00000       0.00000       0.00000
 H   9.752370       9.647190       15.15610           0.00000       0.00000       0.00000
 H   10.38120       9.989680       13.51950           0.00000       0.00000       0.00000
 H   9.186520       11.08970       14.30570           0.00000       0.00000       0.00000
 H   8.665290       9.472110       13.80350           0.00000       0.00000       0.00000
 C   2.806790       13.01920       9.278370           0.00000       0.00000       0.00000
 H   2.654100       14.09700       9.208490           0.00000       0.00000       0.00000
 H   1.885590       12.53680       9.000760           0.00000       0.00000       0.00000
 H   3.576420       12.71020       8.589850           0.00000       0.00000       0.00000
 H   3.028590       12.69330       10.29960           0.00000       0.00000       0.00000
 C   3.493180       9.688270       8.140100           0.00000       0.00000       0.00000
 H   3.410070       8.612150       8.061160           0.00000       0.00000       0.00000
 H   2.757550       10.16760       7.480930           0.00000       0.00000       0.00000
 H   3.293850       10.01450       9.176010           0.00000       0.00000       0.00000
 H   4.483010       10.01760       7.833840           0.00000       0.00000       0.00000
 C   11.37800       10.83680       6.981200           0.00000       0.00000       0.00000
 H   11.04160       11.04580       5.980690           0.00000       0.00000       0.00000
 H   12.22990       10.13400       6.935560           0.00000       0.00000       0.00000
 H   11.57360       11.79140       7.469810           0.00000       0.00000       0.00000
 H   10.58680       10.29370       7.511730           0.00000       0.00000       0.00000
 C   6.715390       7.631900       10.36030           0.00000       0.00000       0.00000
 H   6.936210       6.694030       9.869510           0.00000       0.00000       0.00000
 H   5.790080       7.514540       10.93270           0.00000       0.00000       0.00000
 H   7.560010       7.896720       10.98530           0.00000       0.00000       0.00000
 H   6.543630       8.372000       9.597080           0.00000       0.00000       0.00000
 C   7.715560       8.918210       17.57780           0.00000       0.00000       0.00000
 H   8.078660       9.817190       17.11900           0.00000       0.00000       0.00000
 H   8.059290       8.051330       17.02210           0.00000       0.00000       0.00000
 H   8.079440       8.864340       18.59420           0.00000       0.00000       0.00000
 H   6.651130       8.956370       17.57030           0.00000       0.00000       0.00000
 C   5.503980       11.12210       15.31830           0.00000       0.00000       0.00000
 H   5.354560       11.02970       16.37540           0.00000       0.00000       0.00000
 H   6.310200       11.85730       15.18170           0.00000       0.00000       0.00000
 H   5.797760       10.17240       14.88610           0.00000       0.00000       0.00000
 H   4.565580       11.44210       14.86160           0.00000       0.00000       0.00000
 C   5.486120       18.33210       18.61040           0.00000       0.00000       0.00000
 H   5.969350       17.38070       18.88020           0.00000       0.00000       0.00000
 H   5.141580       18.89080       19.47940           0.00000       0.00000       0.00000
 H   4.604720       18.09550       17.99610           0.00000       0.00000       0.00000
 H   6.212370       18.92910       18.02350           0.00000       0.00000       0.00000
 C   11.19890       7.912020       17.51450           0.00000       0.00000       0.00000
 H   10.41020       7.158060       17.36540           0.00000       0.00000       0.00000
 H   11.90870       7.844710       16.68850           0.00000       0.00000       0.00000
 H   10.74680       8.904930       17.54930           0.00000       0.00000       0.00000
 H   11.76090       7.724420       18.43630           0.00000       0.00000       0.00000
 C   9.171090       4.640470       10.95810           0.00000       0.00000       0.00000
 H   10.03710       5.273180       10.77280           0.00000       0.00000       0.00000
 H   8.356990       5.263800       11.35670           0.00000       0.00000       0.00000
 H   8.860880       4.170870       10.00880           0.00000       0.00000       0.00000
 H   9.433010       3.854260       11.69310           0.00000       0.00000       0.00000
 C   11.59890       13.27650       14.45130           0.00000       0.00000       0.00000
 H   11.26510       12.40570       13.89690           0.00000       0.00000       0.00000
 H   11.44200       14.18920       13.91010           0.00000       0.00000       0.00000
 H   11.13180       13.31130       15.44330           0.00000       0.00000       0.00000
 H   12.66680       13.13970       14.54080           0.00000       0.00000       0.00000
 C   1.509880       3.246550       12.47370           0.00000       0.00000       0.00000
 H   1.226140       2.449400       13.13080           0.00000       0.00000       0.00000
 H   2.586150       3.295380       12.57830           0.00000       0.00000       0.00000
 H   1.009000       4.180600       12.76280           0.00000       0.00000       0.00000
 H   1.221040       2.993120       11.45470           0.00000       0.00000       0.00000
 C   5.922350       5.080440       17.84860           0.00000       0.00000       0.00000
 H   6.756420       5.807030       17.92490           0.00000       0.00000       0.00000
 H   6.316500       4.071670       17.91870           0.00000       0.00000       0.00000
 H   5.172110       5.246950       18.65620           0.00000       0.00000       0.00000
 H   5.448910       5.254910       16.87090           0.00000       0.00000       0.00000
 C   3.893540       16.75700       10.45760           0.00000       0.00000       0.00000
 H   4.461220       15.88180       10.16180           0.00000       0.00000       0.00000
 H   4.157410       17.63430       9.852200           0.00000       0.00000       0.00000
 H   4.054150       16.97960       11.49800           0.00000       0.00000       0.00000
 H   2.864910       16.53060       10.30990           0.00000       0.00000       0.00000
 C -0.9024910       13.83450       19.18740           0.00000       0.00000       0.00000
 H  -1.080180       12.79530       18.88880           0.00000       0.00000       0.00000
 H -0.6580620       13.87910       20.23660           0.00000       0.00000       0.00000
 H -3.3287600E-02   14.19100       18.61370           0.00000       0.00000       0.00000
 H  -1.797980       14.41300       18.98760           0.00000       0.00000       0.00000
 C   2.228670       5.610890       15.83810           0.00000       0.00000       0.00000
 H   2.568100       5.273180       16.81290           0.00000       0.00000       0.00000
 H   2.695710       4.992030       15.07150           0.00000       0.00000       0.00000
 H   1.157170       5.518510       15.72610           0.00000       0.00000       0.00000
 H   2.516960       6.632760       15.70640           0.00000       0.00000       0.00000
 C   2.407710       7.034350       11.16870           0.00000       0.00000       0.00000
 H   1.317050       7.122100       11.12120           0.00000       0.00000       0.00000
 H   2.722210       6.012040       11.03660           0.00000       0.00000       0.00000
 H   2.845940       7.660540       10.39760           0.00000       0.00000       0.00000
 H   2.750720       7.414380       12.13290           0.00000       0.00000       0.00000
 C  0.9136140       6.893240       7.233870           0.00000       0.00000       0.00000
 H   1.595840       6.125700       6.796210           0.00000       0.00000       0.00000
 H -9.9825799E-02   6.759630       6.888140           0.00000       0.00000       0.00000
 H   1.239420       7.894910       6.966200           0.00000       0.00000       0.00000
 H  0.9306770       6.848100       8.331760           0.00000       0.00000       0.00000
 C   5.849240       11.19110       11.34750           0.00000       0.00000       0.00000
 H   5.724580       12.14320       10.83400           0.00000       0.00000       0.00000
 H   5.674940       11.33490       12.38550           0.00000       0.00000       0.00000
 H   5.137180       10.43550       10.97790           0.00000       0.00000       0.00000
 H   6.870430       10.85800       11.22520           0.00000       0.00000       0.00000
 C   7.251360       3.246730       13.99820           0.00000       0.00000       0.00000
 H   7.708450       2.259670       13.95420           0.00000       0.00000       0.00000
 H   8.027780       3.953180       14.32540           0.00000       0.00000       0.00000
 H   6.444640       3.231900       14.73540           0.00000       0.00000       0.00000
 H   6.802250       3.491200       13.03650           0.00000       0.00000       0.00000
 C   3.668420       8.547060       17.90920           0.00000       0.00000       0.00000
 H   4.265440       8.903860       18.73850           0.00000       0.00000       0.00000
 H   3.652960       9.287480       17.13500           0.00000       0.00000       0.00000
 H   4.196050       7.676930       17.52850           0.00000       0.00000       0.00000
 H   2.670760       8.282090       18.28290           0.00000       0.00000       0.00000
 C   3.769520       11.75060       23.41570           0.00000       0.00000       0.00000
 H   4.415970       12.63270       23.31530           0.00000       0.00000       0.00000
 H   4.307060       10.89440       23.01540           0.00000       0.00000       0.00000
 H   3.461920       11.57010       24.44620           0.00000       0.00000       0.00000
 H   2.890020       11.87330       22.82310           0.00000       0.00000       0.00000
 C   2.425840       10.30570       12.77570           0.00000       0.00000       0.00000
 H   2.087580       9.707950       11.91690           0.00000       0.00000       0.00000
 H   3.419330       9.946150       13.13460           0.00000       0.00000       0.00000
 H   1.697840       10.26670       13.57090           0.00000       0.00000       0.00000
 H   2.526170       11.34000       12.42490           0.00000       0.00000       0.00000
