#total energy=-4.4559696 eV

CRYSTAL
PRIMVEC
        75.9000000            0.00000000           0.00000000
        0.00000000            75.9000000           0.00000000
        0.00000000            0.00000000           75.9000000
PRIMCOORD
320 1
 C   11.49830       6.697500       6.672600           0.00000       0.00000       0.00000
 H   12.17640       7.500400       6.975960           0.00000       0.00000       0.00000
 H   11.83220       5.760570       7.110190           0.00000       0.00000       0.00000
 H   11.57600       6.587900       5.588530           0.00000       0.00000       0.00000
 H   10.48370       6.911530       7.025690           0.00000       0.00000       0.00000
 C   10.63470       15.55030       9.469470           0.00000       0.00000       0.00000
 H   9.864710       15.58320       10.26960           0.00000       0.00000       0.00000
 H   11.25050       14.65920       9.652860           0.00000       0.00000       0.00000
 H   11.27060       16.43920       9.487670           0.00000       0.00000       0.00000
 H   10.15830       15.48400       8.479370           0.00000       0.00000       0.00000
 C   2.205090       2.750820       7.964450           0.00000       0.00000       0.00000
 H   3.302320       2.865910       7.902210           0.00000       0.00000       0.00000
 H   1.859800       3.220500       8.878970           0.00000       0.00000       0.00000
 H   1.739280       3.249190       7.113230           0.00000       0.00000       0.00000
 H   1.929800       1.686050       7.931170           0.00000       0.00000       0.00000
 C   12.03330       8.122750       13.76530           0.00000       0.00000       0.00000
 H   11.01250       8.306860       14.05660           0.00000       0.00000       0.00000
 H   12.33820       7.160290       14.11210           0.00000       0.00000       0.00000
 H   12.10850       8.197880       12.68780           0.00000       0.00000       0.00000
 H   12.63190       8.886680       14.25820           0.00000       0.00000       0.00000
 C   8.054930       12.39170       2.374730           0.00000       0.00000       0.00000
 H   9.006090       12.91000       2.238530           0.00000       0.00000       0.00000
 H   7.283060       13.11050       2.642240           0.00000       0.00000       0.00000
 H   7.776020       11.89390       1.441590           0.00000       0.00000       0.00000
 H   8.165690       11.65320       3.153420           0.00000       0.00000       0.00000
 C   6.359510       11.20600       5.998420           0.00000       0.00000       0.00000
 H   7.337010       11.25510       6.477740           0.00000       0.00000       0.00000
 H   5.586660       11.13280       6.772460           0.00000       0.00000       0.00000
 H   6.175660       12.13460       5.427740           0.00000       0.00000       0.00000
 H   6.328450       10.38850       5.267530           0.00000       0.00000       0.00000
 C   12.17220       11.78160       12.14910           0.00000       0.00000       0.00000
 H   12.48090       11.65630       13.19250           0.00000       0.00000       0.00000
 H   13.02540       12.10920       11.56730           0.00000       0.00000       0.00000
 H   11.75190       10.85590       11.77510           0.00000       0.00000       0.00000
 H   11.41810       12.57670       12.11880           0.00000       0.00000       0.00000
 C   4.113250       3.707760       4.346330           0.00000       0.00000       0.00000
 H   4.202090       2.658050       4.646720           0.00000       0.00000       0.00000
 H   5.081970       4.182960       4.461370           0.00000       0.00000       0.00000
 H   3.373080       4.198690       4.980100           0.00000       0.00000       0.00000
 H   3.838980       3.738090       3.273180           0.00000       0.00000       0.00000
 C   4.341910       11.79260       2.164870           0.00000       0.00000       0.00000
 H   3.783310       10.90930       1.889350           0.00000       0.00000       0.00000
 H   4.986230       11.59020       3.031090           0.00000       0.00000       0.00000
 H   4.976230       12.07350       1.322160           0.00000       0.00000       0.00000
 H   3.634900       12.58690       2.389820           0.00000       0.00000       0.00000
 C   1.612020       10.47140       11.45080           0.00000       0.00000       0.00000
 H  0.6098370       10.16760       11.12730           0.00000       0.00000       0.00000
 H   2.231460       9.597520       11.63600           0.00000       0.00000       0.00000
 H   2.089790       11.08270       10.68980           0.00000       0.00000       0.00000
 H   1.531990       11.00450       12.37690           0.00000       0.00000       0.00000
 C   15.00630       7.033760       9.070050           0.00000       0.00000       0.00000
 H   15.78140       6.275750       9.117170           0.00000       0.00000       0.00000
 H   14.03280       6.577890       8.870490           0.00000       0.00000       0.00000
 H   14.96190       7.536300       10.02880           0.00000       0.00000       0.00000
 H   15.24530       7.771220       8.300120           0.00000       0.00000       0.00000
 C   5.900290       1.487560       6.957020           0.00000       0.00000       0.00000
 H   4.889720       1.225610       6.676210           0.00000       0.00000       0.00000
 H   6.425060       2.016320       6.159710           0.00000       0.00000       0.00000
 H   6.463120      0.5779980       7.193160           0.00000       0.00000       0.00000
 H   5.871300       2.140770       7.849390           0.00000       0.00000       0.00000
 C   13.00690       3.315720       8.547700           0.00000       0.00000       0.00000
 H   12.38570       3.177740       7.642020           0.00000       0.00000       0.00000
 H   14.05570       3.265920       8.308330           0.00000       0.00000       0.00000
 H   12.69960       2.577720       9.310290           0.00000       0.00000       0.00000
 H   12.78630       4.308560       8.944270           0.00000       0.00000       0.00000
 C   7.367170       2.502500       14.14670           0.00000       0.00000       0.00000
 H   6.392590       2.383660       14.63800           0.00000       0.00000       0.00000
 H   8.074180       1.764330       14.56310           0.00000       0.00000       0.00000
 H   7.735520       3.516670       14.28300           0.00000       0.00000       0.00000
 H   7.280230       2.271720       13.07640           0.00000       0.00000       0.00000
 C   5.575650       10.13090       13.80790           0.00000       0.00000       0.00000
 H   4.830110       10.67920       13.23570           0.00000       0.00000       0.00000
 H   6.517070       10.15490       13.25900           0.00000       0.00000       0.00000
 H   5.708670       10.58300       14.78770           0.00000       0.00000       0.00000
 H   5.282660       9.097570       13.88680           0.00000       0.00000       0.00000
 C   7.784960       7.879220       8.176090           0.00000       0.00000       0.00000
 H   7.685890       7.004520       7.534090           0.00000       0.00000       0.00000
 H   7.562730       8.769400       7.594420           0.00000       0.00000       0.00000
 H   7.016280       7.809760       8.947700           0.00000       0.00000       0.00000
 H   8.755310       7.928810       8.626890           0.00000       0.00000       0.00000
 C   14.91180       4.972560       5.547460           0.00000       0.00000       0.00000
 H   15.19030       4.858930       4.502300           0.00000       0.00000       0.00000
 H   15.37990       5.867710       5.923400           0.00000       0.00000       0.00000
 H   15.24110       4.108370       6.136070           0.00000       0.00000       0.00000
 H   13.83580       5.069860       5.593450           0.00000       0.00000       0.00000
 C   10.18260       8.987270     -0.7300650           0.00000       0.00000       0.00000
 H   9.364040       9.204950      -1.429920           0.00000       0.00000       0.00000
 H   10.98980       8.569440      -1.318600           0.00000       0.00000       0.00000
 H   10.52800       9.892040     -0.2260340           0.00000       0.00000       0.00000
 H   9.881430       8.254560      6.7111598E-03       0.00000       0.00000       0.00000
 C   2.828670       12.81920       8.165870           0.00000       0.00000       0.00000
 H   3.449590       13.26570       8.942280           0.00000       0.00000       0.00000
 H   2.565860       13.55560       7.423000           0.00000       0.00000       0.00000
 H   3.352860       12.03110       7.637050           0.00000       0.00000       0.00000
 H   1.948460       12.39780       8.622100           0.00000       0.00000       0.00000
 C   9.121530       9.331910       11.47720           0.00000       0.00000       0.00000
 H   9.386180       8.558010       12.20140           0.00000       0.00000       0.00000
 H   8.115080       9.166040       11.04540           0.00000       0.00000       0.00000
 H   9.144830       10.29600       11.98620           0.00000       0.00000       0.00000
 H   9.828910       9.328110       10.65800           0.00000       0.00000       0.00000
 C   5.240550       9.200330     -0.6492980           0.00000       0.00000       0.00000
 H   6.082070       9.859460     -0.8386620           0.00000       0.00000       0.00000
 H   4.325160       9.627530      -1.038680           0.00000       0.00000       0.00000
 H   5.110580       9.093570      0.4249970           0.00000       0.00000       0.00000
 H   5.386250       8.242190      -1.140320           0.00000       0.00000       0.00000
 C   8.025870       4.862050       11.41950           0.00000       0.00000       0.00000
 H   7.991470       5.765820       10.79910           0.00000       0.00000       0.00000
 H   9.043440       4.689770       11.77700           0.00000       0.00000       0.00000
 H   7.734140       3.995580       10.81010           0.00000       0.00000       0.00000
 H   7.331840       4.965690       12.25470           0.00000       0.00000       0.00000
 C   3.847930       13.91130       11.94050           0.00000       0.00000       0.00000
 H   3.935940       14.75470       11.25890           0.00000       0.00000       0.00000
 H   4.510170       13.11150       11.62790           0.00000       0.00000       0.00000
 H   2.810800       13.56980       11.94850           0.00000       0.00000       0.00000
 H   4.144910       14.23860       12.93520           0.00000       0.00000       0.00000
 C   1.609550       7.742900       13.96030           0.00000       0.00000       0.00000
 H   2.606940       8.182430       14.00980           0.00000       0.00000       0.00000
 H   1.330940       7.443940       14.97870           0.00000       0.00000       0.00000
 H  0.8938560       8.472340       13.62110           0.00000       0.00000       0.00000
 H   1.622410       6.861110       13.32010           0.00000       0.00000       0.00000
 C   10.63100       2.016330       11.52300           0.00000       0.00000       0.00000
 H   11.15340       1.795630       12.46140           0.00000       0.00000       0.00000
 H   10.93060       3.003210       11.14240           0.00000       0.00000       0.00000
 H   9.568010       2.013710       11.67850           0.00000       0.00000       0.00000
 H   10.88220       1.274420       10.78860           0.00000       0.00000       0.00000
 C   7.603800       8.612360       2.094470           0.00000       0.00000       0.00000
 H   8.545290       8.605420       2.668380           0.00000       0.00000       0.00000
 H   7.697000       9.163240       1.158890           0.00000       0.00000       0.00000
 H   7.262420       7.584500       1.873770           0.00000       0.00000       0.00000
 H   6.837660       9.116410       2.705680           0.00000       0.00000       0.00000
 C   4.621670       14.53660       4.665760           0.00000       0.00000       0.00000
 H   5.198190       14.79820       5.540950           0.00000       0.00000       0.00000
 H   3.873100       13.77740       4.907080           0.00000       0.00000       0.00000
 H   5.296980       14.17820       3.881000           0.00000       0.00000       0.00000
 H   4.120740       15.40950       4.269130           0.00000       0.00000       0.00000
 C   1.425600       6.282490       10.06220           0.00000       0.00000       0.00000
 H  0.7190030       5.599430       10.56980           0.00000       0.00000       0.00000
 H   2.440620       5.875900       10.15030           0.00000       0.00000       0.00000
 H   1.123210       6.432530       9.023180           0.00000       0.00000       0.00000
 H   1.387220       7.271160       10.55400           0.00000       0.00000       0.00000
 C   6.406670       14.39700       8.450880           0.00000       0.00000       0.00000
 H   5.541980       15.04360       8.461200           0.00000       0.00000       0.00000
 H   6.446290       13.78640       9.366120           0.00000       0.00000       0.00000
 H   7.332280       14.97320       8.377990           0.00000       0.00000       0.00000
 H   6.342850       13.74290       7.565420           0.00000       0.00000       0.00000
 C   10.06610      0.2354200       7.461820           0.00000       0.00000       0.00000
 H   10.92610      0.8630400       7.737010           0.00000       0.00000       0.00000
 H   9.303830      0.8100090       6.965370           0.00000       0.00000       0.00000
 H   10.45780     -0.5509590       6.827930           0.00000       0.00000       0.00000
 H   9.666530     -0.1465530       8.394510           0.00000       0.00000       0.00000
 C   1.865760       10.94710       4.578100           0.00000       0.00000       0.00000
 H   1.605920       9.897410       4.600290           0.00000       0.00000       0.00000
 H   1.284820       11.48920       5.322590           0.00000       0.00000       0.00000
 H   2.935140       11.10320       4.791180           0.00000       0.00000       0.00000
 H   1.591200       11.35380       3.581560           0.00000       0.00000       0.00000
 C   9.311310       10.86310       15.04360           0.00000       0.00000       0.00000
 H   8.828820       11.80350       15.34650           0.00000       0.00000       0.00000
 H   10.13770       11.07740       14.35960           0.00000       0.00000       0.00000
 H   8.594820       10.18590       14.57760           0.00000       0.00000       0.00000
 H   9.693370       10.38950       15.95260           0.00000       0.00000       0.00000
 C   5.402340       5.141830       1.197120           0.00000       0.00000       0.00000
 H   5.015070       6.081770       1.623410           0.00000       0.00000       0.00000
 H   6.189600       5.366270      0.4594910           0.00000       0.00000       0.00000
 H   4.582600       4.581610      0.7564760           0.00000       0.00000       0.00000
 H   5.828760       4.538250       1.994880           0.00000       0.00000       0.00000
 C   14.56110       5.269010       12.55520           0.00000       0.00000       0.00000
 H   14.13970       6.259080       12.36860           0.00000       0.00000       0.00000
 H   14.74920       5.146340       13.62400           0.00000       0.00000       0.00000
 H   13.84200       4.498490       12.24540           0.00000       0.00000       0.00000
 H   15.48290       5.125790       11.98390           0.00000       0.00000       0.00000
 C   5.289080       5.138870       8.065950           0.00000       0.00000       0.00000
 H   5.188360       4.455470       7.226040           0.00000       0.00000       0.00000
 H   5.423290       6.146970       7.736690           0.00000       0.00000       0.00000
 H   4.357120       5.125430       8.631770           0.00000       0.00000       0.00000
 H   6.106990       4.857630       8.729630           0.00000       0.00000       0.00000
 C   2.562540       7.926860       2.151910           0.00000       0.00000       0.00000
 H   1.861780       8.581960       2.675480           0.00000       0.00000       0.00000
 H   3.562350       8.326580       2.274820           0.00000       0.00000       0.00000
 H   2.498330       6.928360       2.576000           0.00000       0.00000       0.00000
 H   2.308790       7.881430       1.099360           0.00000       0.00000       0.00000
 C   3.587640       8.580780       7.755730           0.00000       0.00000       0.00000
 H   3.218970       9.441680       8.312670           0.00000       0.00000       0.00000
 H   4.662260       8.574100       7.731340           0.00000       0.00000       0.00000
 H   3.198900       7.661210       8.205030           0.00000       0.00000       0.00000
 H   3.222280       8.634840       6.724520           0.00000       0.00000       0.00000
 C   7.542610       1.994610       3.375210           0.00000       0.00000       0.00000
 H   6.467860       1.864760       3.282500           0.00000       0.00000       0.00000
 H   8.051450       1.814320       2.427550           0.00000       0.00000       0.00000
 H   7.893510       1.310700       4.141440           0.00000       0.00000       0.00000
 H   7.729210       3.024010       3.663500           0.00000       0.00000       0.00000
 C   7.882620       6.997470       14.97780           0.00000       0.00000       0.00000
 H   6.795460       6.940900       14.87630           0.00000       0.00000       0.00000
 H   8.151220       7.866990       15.59840           0.00000       0.00000       0.00000
 H   8.341580       7.031240       13.99100           0.00000       0.00000       0.00000
 H   8.260840       6.099820       15.49550           0.00000       0.00000       0.00000
 C   4.982750       7.176620       11.31980           0.00000       0.00000       0.00000
 H   5.389260       6.158120       11.24020           0.00000       0.00000       0.00000
 H   4.029530       7.139890       11.86170           0.00000       0.00000       0.00000
 H   5.732240       7.813650       11.80920           0.00000       0.00000       0.00000
 H   4.757250       7.547070       10.32520           0.00000       0.00000       0.00000
 C   14.06680       9.353830       5.024370           0.00000       0.00000       0.00000
 H   14.47810       10.25900       4.561930           0.00000       0.00000       0.00000
 H   14.70150       9.022510       5.840670           0.00000       0.00000       0.00000
 H   14.00600       8.558510       4.288020           0.00000       0.00000       0.00000
 H   13.08110       9.535170       5.420650           0.00000       0.00000       0.00000
 C   11.00790       4.474430       14.18920           0.00000       0.00000       0.00000
 H   10.95840       5.168000       13.35560           0.00000       0.00000       0.00000
 H   11.98740       4.003360       14.19470           0.00000       0.00000       0.00000
 H   10.23260       3.728400       14.10250           0.00000       0.00000       0.00000
 H   10.84230       5.030260       15.11590           0.00000       0.00000       0.00000
 C   5.103520       7.574270       4.746710           0.00000       0.00000       0.00000
 H   5.465230       7.126570       3.827180           0.00000       0.00000       0.00000
 H   5.937990       7.820880       5.384300           0.00000       0.00000       0.00000
 H   4.582280       8.486580       4.541760           0.00000       0.00000       0.00000
 H   4.443270       6.919030       5.297390           0.00000       0.00000       0.00000
 C   9.020220       3.925390       7.981780           0.00000       0.00000       0.00000
 H   9.631700       3.337860       8.661650           0.00000       0.00000       0.00000
 H   8.121130       3.358910       7.710860           0.00000       0.00000       0.00000
 H   8.677810       4.826990       8.468720           0.00000       0.00000       0.00000
 H   9.602680       4.189670       7.084900           0.00000       0.00000       0.00000
 C   8.103950       13.30720       12.62580           0.00000       0.00000       0.00000
 H   7.463170       14.11510       12.31820           0.00000       0.00000       0.00000
 H   7.475160       12.56340       13.12960           0.00000       0.00000       0.00000
 H   8.601720       12.79810       11.77570           0.00000       0.00000       0.00000
 H   8.850690       13.67160       13.32990           0.00000       0.00000       0.00000
 C   11.32660       6.263340       10.44820           0.00000       0.00000       0.00000
 H   10.62220       6.638450       11.19930           0.00000       0.00000       0.00000
 H   12.07800       5.612670       10.89000           0.00000       0.00000       0.00000
 H   10.73350       5.743140       9.679210           0.00000       0.00000       0.00000
 H   11.83130       7.124490       10.01040           0.00000       0.00000       0.00000
 C   15.19160       9.584920       12.62570           0.00000       0.00000       0.00000
 H   15.99110       10.00940       12.01830           0.00000       0.00000       0.00000
 H   14.32330       9.407270       11.99110           0.00000       0.00000       0.00000
 H   15.52900       8.626470       13.05930           0.00000       0.00000       0.00000
 H   14.94260       10.28770       13.44940           0.00000       0.00000       0.00000
 C   4.452680       3.112650       11.43170           0.00000       0.00000       0.00000
 H   3.630090       3.845370       11.49260           0.00000       0.00000       0.00000
 H   4.012850       2.128900       11.30210           0.00000       0.00000       0.00000
 H   5.060520       3.312330       10.55310           0.00000       0.00000       0.00000
 H   5.059490       3.113390       12.33110           0.00000       0.00000       0.00000
 C   7.164790      0.3523970       10.41040           0.00000       0.00000       0.00000
 H   7.848110       1.052280       9.943180           0.00000       0.00000       0.00000
 H   7.542700      4.0265702E-02   11.39310           0.00000       0.00000       0.00000
 H   7.075490     -0.5057850       9.770260           0.00000       0.00000       0.00000
 H   6.192770      0.8263930       10.53300           0.00000       0.00000       0.00000
 C   11.42070       2.586750       4.743570           0.00000       0.00000       0.00000
 H   10.46220       2.369870       5.179490           0.00000       0.00000       0.00000
 H   11.28140       2.686330       3.672890           0.00000       0.00000       0.00000
 H   11.82620       3.506010       5.122580           0.00000       0.00000       0.00000
 H   12.10060       1.774390       4.954170           0.00000       0.00000       0.00000
 C   16.02420       10.84920       8.450180           0.00000       0.00000       0.00000
 H   15.30460       11.16590       9.178650           0.00000       0.00000       0.00000
 H   16.45130       9.876130       8.770440           0.00000       0.00000       0.00000
 H   15.53600       10.74650       7.474050           0.00000       0.00000       0.00000
 H   16.83940       11.55570       8.409390           0.00000       0.00000       0.00000
 C   8.390780       5.734090       4.732550           0.00000       0.00000       0.00000
 H   7.646390       5.440580       5.483920           0.00000       0.00000       0.00000
 H   9.234670       5.043960       4.751070           0.00000       0.00000       0.00000
 H   7.941020       5.778390       3.742560           0.00000       0.00000       0.00000
 H   8.757160       6.751340       4.960010           0.00000       0.00000       0.00000
 C   12.49690       12.55740       6.296260           0.00000       0.00000       0.00000
 H   12.47220       13.03230       5.316830           0.00000       0.00000       0.00000
 H   13.53040       12.47080       6.607300           0.00000       0.00000       0.00000
 H   12.01540       11.57080       6.261130           0.00000       0.00000       0.00000
 H   11.98080       13.21790       7.010220           0.00000       0.00000       0.00000
 C   9.721780       9.727480       5.439550           0.00000       0.00000       0.00000
 H   9.887090       10.76600       5.101180           0.00000       0.00000       0.00000
 H   8.692630       9.441940       5.206420           0.00000       0.00000       0.00000
 H   10.44490       9.085610       4.925100           0.00000       0.00000       0.00000
 H   9.862230       9.643510       6.515480           0.00000       0.00000       0.00000
 C   9.117570       14.19910       5.303810           0.00000       0.00000       0.00000
 H   8.103770       13.78250       5.318680           0.00000       0.00000       0.00000
 H   9.758450       13.53780       4.696690           0.00000       0.00000       0.00000
 H   9.519050       14.22790       6.329480           0.00000       0.00000       0.00000
 H   9.118900       15.18530       4.850570           0.00000       0.00000       0.00000
 C   11.58980       7.188600       2.639190           0.00000       0.00000       0.00000
 H   11.50410       7.228700       1.559320           0.00000       0.00000       0.00000
 H   10.64880       6.832740       3.054260           0.00000       0.00000       0.00000
 H   12.39450       6.530390       2.917760           0.00000       0.00000       0.00000
 H   11.87360       8.174660       3.037180           0.00000       0.00000       0.00000
 C   5.600330       10.78260       10.19010           0.00000       0.00000       0.00000
 H   5.264690       11.57320       9.526060           0.00000       0.00000       0.00000
 H   6.031620       10.01000       9.549410           0.00000       0.00000       0.00000
 H   6.356880       11.14680       10.90550           0.00000       0.00000       0.00000
 H   4.763140       10.33800       10.72950           0.00000       0.00000       0.00000
 C   12.41960       9.818320       8.964060           0.00000       0.00000       0.00000
 H   12.93800       9.822210       7.998090           0.00000       0.00000       0.00000
 H   13.03040       9.252920       9.652900           0.00000       0.00000       0.00000
 H   12.30510       10.84520       9.336680           0.00000       0.00000       0.00000
 H   11.44190       9.338950       8.871880           0.00000       0.00000       0.00000
 C   4.379720       5.042940       14.88320           0.00000       0.00000       0.00000
 H   3.730630       5.828690       15.27710           0.00000       0.00000       0.00000
 H   4.713020       5.339640       13.88590           0.00000       0.00000       0.00000
 H   3.858710       4.081380       14.77810           0.00000       0.00000       0.00000
 H   5.276110       4.910550       15.49330           0.00000       0.00000       0.00000
 C   1.287680       6.385550       5.916250           0.00000       0.00000       0.00000
 H   2.104550       5.934260       6.488530           0.00000       0.00000       0.00000
 H  0.9723180       5.728410       5.124950           0.00000       0.00000       0.00000
 H  0.4366480       6.569790       6.592830           0.00000       0.00000       0.00000
 H   1.625730       7.334840       5.496500           0.00000       0.00000       0.00000
 C   9.213850       11.80420       8.822570           0.00000       0.00000       0.00000
 H   9.711190       11.67000       7.856960           0.00000       0.00000       0.00000
 H   8.708780       12.78110       8.784310           0.00000       0.00000       0.00000
 H   9.963650       11.76520       9.610790           0.00000       0.00000       0.00000
 H   8.483320       11.00460       9.021800           0.00000       0.00000       0.00000
 C   11.67360       11.00500       2.534540           0.00000       0.00000       0.00000
 H   12.02310       10.86110       3.558260           0.00000       0.00000       0.00000
 H   10.71700       10.48390       2.398010           0.00000       0.00000       0.00000
 H   11.52510       12.06190       2.346440           0.00000       0.00000       0.00000
 H   12.38200       10.60010       1.822190           0.00000       0.00000       0.00000
 C   9.219430       4.745720       1.194490           0.00000       0.00000       0.00000
 H   8.299760       4.147090       1.134160           0.00000       0.00000       0.00000
 H   8.979940       5.810560       1.142090           0.00000       0.00000       0.00000
 H   9.741650       4.529430       2.123800           0.00000       0.00000       0.00000
 H   9.854040       4.514670      0.3542910           0.00000       0.00000       0.00000
 C -0.2452100       9.325570       8.222110           0.00000       0.00000       0.00000
 H  0.5907440       9.875080       8.666710           0.00000       0.00000       0.00000
 H -2.0262500E-02   9.106650       7.179210           0.00000       0.00000       0.00000
 H  -1.142150       9.933980       8.223290           0.00000       0.00000       0.00000
 H -0.3660820       8.416360       8.778200           0.00000       0.00000       0.00000
