#total energy=-4.589562 eV

CRYSTAL
PRIMVEC
        75.9000000            0.00000000           0.00000000
        0.00000000            75.9000000           0.00000000
        0.00000000            0.00000000           75.9000000
PRIMCOORD
320 1
 C   11.61590       8.743820       8.616370           0.00000       0.00000       0.00000
 H   11.60340       7.772350       9.119330           0.00000       0.00000       0.00000
 H   12.13170       9.474940       9.217700           0.00000       0.00000       0.00000
 H   10.57560       9.052070       8.430650           0.00000       0.00000       0.00000
 H   12.16130       8.645750       7.670520           0.00000       0.00000       0.00000
 C   4.493570       15.74170       7.568980           0.00000       0.00000       0.00000
 H   5.116300       16.43150       7.018010           0.00000       0.00000       0.00000
 H   3.443270       15.94440       7.366990           0.00000       0.00000       0.00000
 H   4.695580       15.83860       8.633280           0.00000       0.00000       0.00000
 H   4.727320       14.72140       7.213900           0.00000       0.00000       0.00000
 C   7.903680      0.5705390       3.815100           0.00000       0.00000       0.00000
 H   6.891330      0.2252370       3.618050           0.00000       0.00000       0.00000
 H   8.480990     -0.2694870       4.185200           0.00000       0.00000       0.00000
 H   8.342870      0.9254460       2.885060           0.00000       0.00000       0.00000
 H   7.887300       1.345670       4.558870           0.00000       0.00000       0.00000
 C   1.722850       9.025040       10.87740           0.00000       0.00000       0.00000
 H   1.081340       9.907230       10.76100           0.00000       0.00000       0.00000
 H   2.523880       9.109600       10.14860           0.00000       0.00000       0.00000
 H   2.113530       8.987690       11.90010           0.00000       0.00000       0.00000
 H   1.126280       8.142630       10.70500           0.00000       0.00000       0.00000
 C   12.14060       13.11200       8.403480           0.00000       0.00000       0.00000
 H   12.28620       13.06500       7.313260           0.00000       0.00000       0.00000
 H   12.12340       12.10380       8.823430           0.00000       0.00000       0.00000
 H   12.97220       13.66760       8.815780           0.00000       0.00000       0.00000
 H   11.18270       13.62630       8.602010           0.00000       0.00000       0.00000
 C   6.010070       12.04470       7.759120           0.00000       0.00000       0.00000
 H   6.293630       11.00180       7.822610           0.00000       0.00000       0.00000
 H   5.082510       12.08870       7.179570           0.00000       0.00000       0.00000
 H   5.837210       12.46630       8.749910           0.00000       0.00000       0.00000
 H   6.787690       12.61630       7.233610           0.00000       0.00000       0.00000
 C   2.880440       11.93040       13.28420           0.00000       0.00000       0.00000
 H   2.835450       13.01120       13.19180           0.00000       0.00000       0.00000
 H   1.859970       11.54400       13.17950           0.00000       0.00000       0.00000
 H   3.513810       11.47550       12.51370           0.00000       0.00000       0.00000
 H   3.285960       11.65020       14.25260           0.00000       0.00000       0.00000
 C   3.835180       2.849070       10.39070           0.00000       0.00000       0.00000
 H   4.418290       2.956160       11.30480           0.00000       0.00000       0.00000
 H   3.825630       1.796520       10.09090           0.00000       0.00000       0.00000
 H   4.239010       3.486620       9.614990           0.00000       0.00000       0.00000
 H   2.805300       3.116700       10.57480           0.00000       0.00000       0.00000
 C   8.086850       4.696620       1.049730           0.00000       0.00000       0.00000
 H   7.962110       3.688030       1.439440           0.00000       0.00000       0.00000
 H   7.723580       4.772100      2.6351299E-02       0.00000       0.00000       0.00000
 H   7.566800       5.418430       1.659550           0.00000       0.00000       0.00000
 H   9.141750       4.931960       1.051290           0.00000       0.00000       0.00000
 C   11.22940       5.982740       14.62140           0.00000       0.00000       0.00000
 H   11.02010       4.957250       14.93930           0.00000       0.00000       0.00000
 H   10.83710       6.680660       15.36690           0.00000       0.00000       0.00000
 H   12.31010       6.106470       14.53450           0.00000       0.00000       0.00000
 H   10.76310       6.172690       13.66390           0.00000       0.00000       0.00000
 C   10.67800       9.844740       14.16530           0.00000       0.00000       0.00000
 H   10.37530       10.14990       13.16130           0.00000       0.00000       0.00000
 H   11.17460       8.887100       14.17110           0.00000       0.00000       0.00000
 H   11.38170       10.59980       14.54220           0.00000       0.00000       0.00000
 H   9.812340       9.820900       14.83570           0.00000       0.00000       0.00000
 C   5.843270       1.190070       6.849020           0.00000       0.00000       0.00000
 H   6.652100       1.915920       6.891220           0.00000       0.00000       0.00000
 H   4.943570       1.594340       7.326600           0.00000       0.00000       0.00000
 H   6.153190      0.2643320       7.354030           0.00000       0.00000       0.00000
 H   5.645720      0.9835610       5.797700           0.00000       0.00000       0.00000
 C   11.65930       1.844730       4.746670           0.00000       0.00000       0.00000
 H   10.67630       1.444140       4.958100           0.00000       0.00000       0.00000
 H   11.71330       2.097520       3.689420           0.00000       0.00000       0.00000
 H   12.41740       1.088140       4.931860           0.00000       0.00000       0.00000
 H   11.82430       2.744990       5.320520           0.00000       0.00000       0.00000
 C   14.87300       4.121100       5.398870           0.00000       0.00000       0.00000
 H   13.85520       4.308490       5.746270           0.00000       0.00000       0.00000
 H   14.82980       3.668400       4.403970           0.00000       0.00000       0.00000
 H   15.37960       3.440700       6.085640           0.00000       0.00000       0.00000
 H   15.40970       5.082490       5.349980           0.00000       0.00000       0.00000
 C   1.863180       2.023130       6.762490           0.00000       0.00000       0.00000
 H  0.7802710       2.136380       6.949490           0.00000       0.00000       0.00000
 H   2.068560       2.492930       5.802640           0.00000       0.00000       0.00000
 H   2.447660       2.492320       7.565220           0.00000       0.00000       0.00000
 H   2.102260      0.9584680       6.693500           0.00000       0.00000       0.00000
 C   7.783330       7.945080       7.531800           0.00000       0.00000       0.00000
 H   7.491680       8.576530       6.704350           0.00000       0.00000       0.00000
 H   7.092540       7.087790       7.582340           0.00000       0.00000       0.00000
 H   8.799840       7.561920       7.401880           0.00000       0.00000       0.00000
 H   7.732850       8.515300       8.457310           0.00000       0.00000       0.00000
 C   15.01130       10.45040       8.187050           0.00000       0.00000       0.00000
 H   15.98570       10.26530       7.757690           0.00000       0.00000       0.00000
 H   14.88230       11.52540       8.279410           0.00000       0.00000       0.00000
 H   14.95720       9.941370       9.158870           0.00000       0.00000       0.00000
 H   14.23460       10.03460       7.512690           0.00000       0.00000       0.00000
 C   10.22550       7.947640      0.7027510           0.00000       0.00000       0.00000
 H   10.99110       8.469020       1.266110           0.00000       0.00000       0.00000
 H   9.922100       8.552020     -0.1678860           0.00000       0.00000       0.00000
 H   10.60520       6.973380      0.3774300           0.00000       0.00000       0.00000
 H   9.343680       7.803920       1.309580           0.00000       0.00000       0.00000
 C   2.976020       12.44260       5.150930           0.00000       0.00000       0.00000
 H   3.563010       11.53470       5.256430           0.00000       0.00000       0.00000
 H   2.387220       12.41130       4.225770           0.00000       0.00000       0.00000
 H   2.324160       12.57000       6.019510           0.00000       0.00000       0.00000
 H   3.660170       13.30500       5.113020           0.00000       0.00000       0.00000
 C   5.351070       6.591350       10.64630           0.00000       0.00000       0.00000
 H   5.648910       6.853980       11.65320           0.00000       0.00000       0.00000
 H   4.312350       6.896700       10.51110           0.00000       0.00000       0.00000
 H   5.992860       7.143210       9.942720           0.00000       0.00000       0.00000
 H   5.464740       5.522220       10.49060           0.00000       0.00000       0.00000
 C   5.243390       12.92670       1.608680           0.00000       0.00000       0.00000
 H   4.523240       12.21590       1.187150           0.00000       0.00000       0.00000
 H   5.028970       13.05970       2.655850           0.00000       0.00000       0.00000
 H   5.080120       13.88550       1.099530           0.00000       0.00000       0.00000
 H   6.266290       12.58630       1.450150           0.00000       0.00000       0.00000
 C   10.81300       1.052510       11.19600           0.00000       0.00000       0.00000
 H   10.49170       1.740920       10.41650           0.00000       0.00000       0.00000
 H   10.92010      5.8632601E-02   10.75920           0.00000       0.00000       0.00000
 H   10.07470      0.9849600       12.00300           0.00000       0.00000       0.00000
 H   11.76850       1.361350       11.61940           0.00000       0.00000       0.00000
 C   1.294930       5.580340       8.550950           0.00000       0.00000       0.00000
 H   1.332500       5.192620       7.523650           0.00000       0.00000       0.00000
 H   1.167150       6.663350       8.520850           0.00000       0.00000       0.00000
 H   2.222850       5.327400       9.023050           0.00000       0.00000       0.00000
 H  0.4592590       5.123030       9.095410           0.00000       0.00000       0.00000
 C   11.92250       4.770450       10.82870           0.00000       0.00000       0.00000
 H   12.76950       5.479350       10.91470           0.00000       0.00000       0.00000
 H   11.66650       4.367460       11.80740           0.00000       0.00000       0.00000
 H   11.08240       5.303630       10.37920           0.00000       0.00000       0.00000
 H   12.17640       3.953980       10.17120           0.00000       0.00000       0.00000
 C   7.295880       11.11530       13.96910           0.00000       0.00000       0.00000
 H   6.418650       11.53190       13.50760           0.00000       0.00000       0.00000
 H   7.725580       10.38440       13.27150           0.00000       0.00000       0.00000
 H   6.997570       10.62220       14.88580           0.00000       0.00000       0.00000
 H   8.067940       11.86260       14.15600           0.00000       0.00000       0.00000
 C   9.662430       11.30300       6.521860           0.00000       0.00000       0.00000
 H   9.682410       12.23980       7.096310           0.00000       0.00000       0.00000
 H   8.802080       10.72270       6.846420           0.00000       0.00000       0.00000
 H   9.565600       11.52470       5.459680           0.00000       0.00000       0.00000
 H   10.59680       10.74810       6.667840           0.00000       0.00000       0.00000
 C   1.852500       5.275730       12.27560           0.00000       0.00000       0.00000
 H   1.207320       4.955670       11.45880           0.00000       0.00000       0.00000
 H   2.883800       5.282910       11.94840           0.00000       0.00000       0.00000
 H   1.760990       4.557730       13.10100           0.00000       0.00000       0.00000
 H   1.556160       6.268040       12.63490           0.00000       0.00000       0.00000
 C   4.646340       3.085350       3.638990           0.00000       0.00000       0.00000
 H   4.064520       3.880590       3.187820           0.00000       0.00000       0.00000
 H   4.644040       3.190500       4.725780           0.00000       0.00000       0.00000
 H   4.208050       2.147570       3.346440           0.00000       0.00000       0.00000
 H   5.670590       3.109000       3.263360           0.00000       0.00000       0.00000
 C   4.824120       4.128100       14.09200           0.00000       0.00000       0.00000
 H   4.475720       3.117680       13.90150           0.00000       0.00000       0.00000
 H   4.016010       4.752280       14.47610           0.00000       0.00000       0.00000
 H   5.148310       4.562540       13.14790           0.00000       0.00000       0.00000
 H   5.635850       4.123720       14.78670           0.00000       0.00000       0.00000
 C   11.90080       5.020130       2.640980           0.00000       0.00000       0.00000
 H   10.91060       4.666880       2.978340           0.00000       0.00000       0.00000
 H   12.57670       4.864590       3.474150           0.00000       0.00000       0.00000
 H   12.21730       4.483060       1.748740           0.00000       0.00000       0.00000
 H   11.82940       6.073470       2.380710           0.00000       0.00000       0.00000
 C   2.726210       9.157270       2.801940           0.00000       0.00000       0.00000
 H   3.116620       8.691320       3.698420           0.00000       0.00000       0.00000
 H   2.619440       8.410230       2.019380           0.00000       0.00000       0.00000
 H   1.728530       9.549090       3.006100           0.00000       0.00000       0.00000
 H   3.361560       9.988250       2.508710           0.00000       0.00000       0.00000
 C   4.012800       8.155310       14.18080           0.00000       0.00000       0.00000
 H   3.837150       7.556250       13.27190           0.00000       0.00000       0.00000
 H   3.123280       8.672860       14.50960           0.00000       0.00000       0.00000
 H   4.796460       8.875490       13.97540           0.00000       0.00000       0.00000
 H   4.307680       7.465220       14.95920           0.00000       0.00000       0.00000
 C   9.381120       11.51870       2.359900           0.00000       0.00000       0.00000
 H   10.15320       12.22020       2.662510           0.00000       0.00000       0.00000
 H   8.395790       11.90820       2.629480           0.00000       0.00000       0.00000
 H   9.563750       10.56420       2.868120           0.00000       0.00000       0.00000
 H   9.405140       11.37390       1.272020           0.00000       0.00000       0.00000
 C   7.622190       7.033470       14.72150           0.00000       0.00000       0.00000
 H   7.273770       8.033880       15.01770           0.00000       0.00000       0.00000
 H   7.635250       6.394940       15.61690           0.00000       0.00000       0.00000
 H   6.924410       6.600560       14.00740           0.00000       0.00000       0.00000
 H   8.621090       7.100230       14.27620           0.00000       0.00000       0.00000
 C   8.282620       4.404310       5.110730           0.00000       0.00000       0.00000
 H   7.226470       4.344530       5.393130           0.00000       0.00000       0.00000
 H   8.675790       5.416190       5.256960           0.00000       0.00000       0.00000
 H   8.862740       3.712220       5.713310           0.00000       0.00000       0.00000
 H   8.396890       4.137550       4.065260           0.00000       0.00000       0.00000
 C   11.27380       15.02690       5.222080           0.00000       0.00000       0.00000
 H   11.03400       13.96110       5.342500           0.00000       0.00000       0.00000
 H   11.41270       15.47060       6.207150           0.00000       0.00000       0.00000
 H   12.20540       15.10280       4.680480           0.00000       0.00000       0.00000
 H   10.48510       15.53480       4.677500           0.00000       0.00000       0.00000
 C   6.257450       7.041670       3.760330           0.00000       0.00000       0.00000
 H   7.274000       7.178510       3.379890           0.00000       0.00000       0.00000
 H   5.552230       7.674570       3.212370           0.00000       0.00000       0.00000
 H   5.950280       5.997550       3.573210           0.00000       0.00000       0.00000
 H   6.226030       7.289980       4.816430           0.00000       0.00000       0.00000
 C   4.551500       5.625660      0.5738010           0.00000       0.00000       0.00000
 H   4.195630       5.702160     -0.4423620           0.00000       0.00000       0.00000
 H   5.450600       6.232030      0.6963410           0.00000       0.00000       0.00000
 H   4.819960       4.608010      0.7869360           0.00000       0.00000       0.00000
 H   3.782140       5.933540       1.296940           0.00000       0.00000       0.00000
 C   13.52040       1.888020       8.443930           0.00000       0.00000       0.00000
 H   13.88730       2.880070       8.165590           0.00000       0.00000       0.00000
 H   14.25690       1.415690       9.085480           0.00000       0.00000       0.00000
 H   13.35950       1.265150       7.553810           0.00000       0.00000       0.00000
 H   12.59540       1.976870       9.000530           0.00000       0.00000       0.00000
 C   4.828660       5.017210       7.062540           0.00000       0.00000       0.00000
 H   3.957660       4.520450       6.625460           0.00000       0.00000       0.00000
 H   5.329720       5.581130       6.278740           0.00000       0.00000       0.00000
 H   4.519510       5.692350       7.850090           0.00000       0.00000       0.00000
 H   5.507100       4.267630       7.436580           0.00000       0.00000       0.00000
 C   13.61080       8.048880       12.01880           0.00000       0.00000       0.00000
 H   13.67320       8.387940       10.98750           0.00000       0.00000       0.00000
 H   12.61660       7.685450       12.21130           0.00000       0.00000       0.00000
 H   13.79990       8.853810       12.72870           0.00000       0.00000       0.00000
 H   14.34820       7.246020       12.19590           0.00000       0.00000       0.00000
 C   14.95720       6.248040       8.721060           0.00000       0.00000       0.00000
 H   14.92960       6.035230       9.783220           0.00000       0.00000       0.00000
 H   15.04720       5.316820       8.172650           0.00000       0.00000       0.00000
 H   15.80750       6.894150       8.532530           0.00000       0.00000       0.00000
 H   14.04810       6.746970       8.392650           0.00000       0.00000       0.00000
 C   6.303650       10.63470       4.429540           0.00000       0.00000       0.00000
 H   6.756440       11.61060       4.613980           0.00000       0.00000       0.00000
 H   5.820920       10.23890       5.321130           0.00000       0.00000       0.00000
 H   5.583590       10.68140       3.627300           0.00000       0.00000       0.00000
 H   7.112900       9.965670       4.134530           0.00000       0.00000       0.00000
 C   11.29750       5.085530       7.118350           0.00000       0.00000       0.00000
 H   12.31720       5.367690       7.391440           0.00000       0.00000       0.00000
 H   11.09670       4.068100       7.450240           0.00000       0.00000       0.00000
 H   10.60510       5.784050       7.599570           0.00000       0.00000       0.00000
 H   11.18810       5.130150       6.046430           0.00000       0.00000       0.00000
 C  0.4352270       9.771370       6.455300           0.00000       0.00000       0.00000
 H  0.6734320       9.450590       7.481540           0.00000       0.00000       0.00000
 H  0.5887030       10.83400       6.329180           0.00000       0.00000       0.00000
 H   1.106280       9.249550       5.767300           0.00000       0.00000       0.00000
 H -0.6108550       9.555940       6.221130           0.00000       0.00000       0.00000
 C   8.184710       4.267910       9.167980           0.00000       0.00000       0.00000
 H   7.927370       5.111860       9.789430           0.00000       0.00000       0.00000
 H   7.424390       3.497700       9.309660           0.00000       0.00000       0.00000
 H   8.192640       4.588650       8.125770           0.00000       0.00000       0.00000
 H   9.177740       3.898420       9.460340           0.00000       0.00000       0.00000
 C   8.328410       3.710770       12.71930           0.00000       0.00000       0.00000
 H   7.541260       3.989390       12.00000           0.00000       0.00000       0.00000
 H   8.123100       2.692560       13.06450           0.00000       0.00000       0.00000
 H   9.278350       3.697700       12.21050           0.00000       0.00000       0.00000
 H   8.346370       4.401850       13.57310           0.00000       0.00000       0.00000
 C   6.592620       9.310940      0.6174080           0.00000       0.00000       0.00000
 H   5.555500       9.058640      0.8729240           0.00000       0.00000       0.00000
 H   6.637480       10.21850     -3.1792200E-03       0.00000       0.00000       0.00000
 H   7.170640       9.482620       1.519060           0.00000       0.00000       0.00000
 H   7.018850       8.486190      5.1643901E-02       0.00000       0.00000       0.00000
 C   9.485420      0.9845150       7.702460           0.00000       0.00000       0.00000
 H   8.945890      0.6396870       6.818580           0.00000       0.00000       0.00000
 H   9.274810      0.3400520       8.566320           0.00000       0.00000       0.00000
 H   9.179220       2.005670       7.920730           0.00000       0.00000       0.00000
 H   10.56570      0.9902240       7.508820           0.00000       0.00000       0.00000
 C   13.04030       11.58870       11.78180           0.00000       0.00000       0.00000
 H   12.59490       12.42780       11.22880           0.00000       0.00000       0.00000
 H   14.03580       11.36450       11.40420           0.00000       0.00000       0.00000
 H   13.12560       11.85310       12.84080           0.00000       0.00000       0.00000
 H   12.38550       10.71670       11.68290           0.00000       0.00000       0.00000
 C   2.415140       12.38770       9.072080           0.00000       0.00000       0.00000
 H   2.555440       11.44860       8.527130           0.00000       0.00000       0.00000
 H   2.277200       12.22650       10.14970           0.00000       0.00000       0.00000
 H   3.251260       13.07750       8.876890           0.00000       0.00000       0.00000
 H   1.497470       12.85770       8.684220           0.00000       0.00000       0.00000
 C   10.20400       8.213910       4.532840           0.00000       0.00000       0.00000
 H   10.91360       9.034310       4.396150           0.00000       0.00000       0.00000
 H   10.42340       7.617030       5.421600           0.00000       0.00000       0.00000
 H   9.187610       8.607400       4.601470           0.00000       0.00000       0.00000
 H   10.22730       7.539640       3.669250           0.00000       0.00000       0.00000
 C   6.417180       14.07330       11.56740           0.00000       0.00000       0.00000
 H   6.549890       15.11310       11.27550           0.00000       0.00000       0.00000
 H   6.968140       13.42500       10.88040           0.00000       0.00000       0.00000
 H   5.368940       13.80160       11.50540           0.00000       0.00000       0.00000
 H   6.780080       13.89540       12.58630           0.00000       0.00000       0.00000
 C   9.203600       11.16160       10.38990           0.00000       0.00000       0.00000
 H   8.652260       11.58380       11.22690           0.00000       0.00000       0.00000
 H   9.510680       10.14800       10.63340           0.00000       0.00000       0.00000
 H   8.550740       11.12020       9.520940           0.00000       0.00000       0.00000
 H   10.05060       11.79980       10.12180           0.00000       0.00000       0.00000
 C   8.429680       14.85400       8.422330           0.00000       0.00000       0.00000
 H   8.423020       13.83080       8.810040           0.00000       0.00000       0.00000
 H   7.412630       15.17160       8.183910           0.00000       0.00000       0.00000
 H   9.034550       14.89520       7.519180           0.00000       0.00000       0.00000
 H   8.867970       15.51870       9.155500           0.00000       0.00000       0.00000
 C   13.01040       11.42770       4.096690           0.00000       0.00000       0.00000
 H   12.01040       11.48380       4.511970           0.00000       0.00000       0.00000
 H   13.76160       11.23630       4.870560           0.00000       0.00000       0.00000
 H   13.02690       10.62030       3.362540           0.00000       0.00000       0.00000
 H   13.25420       12.36370       3.599790           0.00000       0.00000       0.00000
 C   4.042700       8.677190       7.255450           0.00000       0.00000       0.00000
 H   4.337490       8.171020       6.333950           0.00000       0.00000       0.00000
 H   3.064660       8.301100       7.558170           0.00000       0.00000       0.00000
 H   4.759260       8.433260       8.056570           0.00000       0.00000       0.00000
 H   4.003580       9.749660       7.064940           0.00000       0.00000       0.00000
 C   8.976800       7.493430       11.42720           0.00000       0.00000       0.00000
 H   9.901790       7.906050       11.81180           0.00000       0.00000       0.00000
 H   8.864350       6.459030       11.78500           0.00000       0.00000       0.00000
 H   8.155950       8.097080       11.80690           0.00000       0.00000       0.00000
 H   8.997990       7.541400       10.33320           0.00000       0.00000       0.00000
 C   6.922880      0.7394320       10.76480           0.00000       0.00000       0.00000
 H   7.938460       1.101210       10.89350           0.00000       0.00000       0.00000
 H   6.423720       1.329000       9.993600           0.00000       0.00000       0.00000
 H   6.380520      0.8455720       11.70710           0.00000       0.00000       0.00000
 H   6.921490     -0.3062380       10.45760           0.00000       0.00000       0.00000
 C   2.409800       5.953720       4.552850           0.00000       0.00000       0.00000
 H   2.182580       4.886380       4.677960           0.00000       0.00000       0.00000
 H   2.067950       6.524220       5.417830           0.00000       0.00000       0.00000
 H   3.487730       6.073880       4.405930           0.00000       0.00000       0.00000
 H   1.910380       6.313960       3.654080           0.00000       0.00000       0.00000
 C   5.448810       10.13240       10.73500           0.00000       0.00000       0.00000
 H   4.855860       10.26540       9.822260           0.00000       0.00000       0.00000
 H   6.381230       9.590890       10.50910           0.00000       0.00000       0.00000
 H   4.880050       9.567300       11.49220           0.00000       0.00000       0.00000
 H   5.714330       11.10080       11.13050           0.00000       0.00000       0.00000
 C   10.14860       13.82390       12.97660           0.00000       0.00000       0.00000
 H   9.419190       13.85040       13.77400           0.00000       0.00000       0.00000
 H   10.83160       14.66520       13.06270           0.00000       0.00000       0.00000
 H   10.68480       12.87560       12.95150           0.00000       0.00000       0.00000
 H   9.621510       13.88050       12.03340           0.00000       0.00000       0.00000
 C   13.74980       7.620740       5.315810           0.00000       0.00000       0.00000
 H   14.61550       7.485260       5.965390           0.00000       0.00000       0.00000
 H   13.39630       8.634060       5.390420           0.00000       0.00000       0.00000
 H   14.07640       7.412780       4.292800           0.00000       0.00000       0.00000
 H   12.96720       6.905520       5.579420           0.00000       0.00000       0.00000
 C   7.359260       14.41790       4.794000           0.00000       0.00000       0.00000
 H   7.455240       15.47750       4.586950           0.00000       0.00000       0.00000
 H   6.566520       14.28250       5.508080           0.00000       0.00000       0.00000
 H   8.305020       13.98950       5.159780           0.00000       0.00000       0.00000
 H   7.096570       13.90440       3.878230           0.00000       0.00000       0.00000
