#total energy=-4.382861 eV

CRYSTAL
PRIMVEC
        75.9000000            0.00000000           0.00000000
        0.00000000            75.9000000           0.00000000
        0.00000000            0.00000000           75.9000000
PRIMCOORD
320 1
 C   10.54080       9.749590       2.898310           0.00000       0.00000       0.00000
 H   10.23250       10.77060       3.123870           0.00000       0.00000       0.00000
 H   9.779870       9.048480       3.240020           0.00000       0.00000       0.00000
 H   11.47550       9.554950       3.414540           0.00000       0.00000       0.00000
 H   10.73210       9.626180       1.834890           0.00000       0.00000       0.00000
 C   8.264820       7.920240       16.61860           0.00000       0.00000       0.00000
 H   7.402450       8.136130       17.24480           0.00000       0.00000       0.00000
 H   8.999910       7.359850       17.18370           0.00000       0.00000       0.00000
 H   8.708880       8.851410       16.30070           0.00000       0.00000       0.00000
 H   7.979840       7.320850       15.74360           0.00000       0.00000       0.00000
 C   4.844170       6.101310       9.856710           0.00000       0.00000       0.00000
 H   5.543180       5.901190       9.029810           0.00000       0.00000       0.00000
 H   5.412070       6.123820       10.77670           0.00000       0.00000       0.00000
 H   4.409540       7.091450       9.711760           0.00000       0.00000       0.00000
 H   4.076350       5.352680       9.928730           0.00000       0.00000       0.00000
 C   3.999590       9.235000       3.188080           0.00000       0.00000       0.00000
 H   3.076960       9.773140       3.448730           0.00000       0.00000       0.00000
 H   3.765620       8.170360       3.024810           0.00000       0.00000       0.00000
 H   4.407380       9.670500       2.271300           0.00000       0.00000       0.00000
 H   4.702630       9.308080       4.005030           0.00000       0.00000       0.00000
 C   11.44150       6.806930       13.92280           0.00000       0.00000       0.00000
 H   10.65310       7.329270       14.45420           0.00000       0.00000       0.00000
 H   10.96680       6.179590       13.16600           0.00000       0.00000       0.00000
 H   12.11290       7.510640       13.45270           0.00000       0.00000       0.00000
 H   12.03190       6.189440       14.60330           0.00000       0.00000       0.00000
 C   7.625770       9.980450       5.188100           0.00000       0.00000       0.00000
 H   8.012590       10.97240       4.931970           0.00000       0.00000       0.00000
 H   8.443080       9.357320       5.555030           0.00000       0.00000       0.00000
 H   6.882690       10.07650       5.976450           0.00000       0.00000       0.00000
 H   7.183290       9.505030       4.303810           0.00000       0.00000       0.00000
 C   9.444760       10.24800     -0.9298780           0.00000       0.00000       0.00000
 H   9.357340       10.94150     -9.5983200E-02       0.00000       0.00000       0.00000
 H   9.912390       9.315030     -0.5914850           0.00000       0.00000       0.00000
 H   8.427010       9.981550      -1.242500           0.00000       0.00000       0.00000
 H   9.988260       10.70610      -1.772980           0.00000       0.00000       0.00000
 C   9.241970       14.74710       13.06670           0.00000       0.00000       0.00000
 H   8.557400       15.05620       13.85590           0.00000       0.00000       0.00000
 H   10.18860       15.24450       13.23270           0.00000       0.00000       0.00000
 H   8.850680       15.05390       12.12130           0.00000       0.00000       0.00000
 H   9.344390       13.65510       13.11880           0.00000       0.00000       0.00000
 C  0.7141670       10.70130       5.812370           0.00000       0.00000       0.00000
 H  0.2744500       11.34310       5.043200           0.00000       0.00000       0.00000
 H  0.7126340       11.18690       6.781160           0.00000       0.00000       0.00000
 H  0.1186800       9.798490       5.851630           0.00000       0.00000       0.00000
 H   1.738810       10.41030       5.549670           0.00000       0.00000       0.00000
 C  0.1627580       9.913170       10.24490           0.00000       0.00000       0.00000
 H -0.2925710       10.46910       9.435030           0.00000       0.00000       0.00000
 H -0.3321160       8.957630       10.32950           0.00000       0.00000       0.00000
 H   1.213860       9.723700       10.02060           0.00000       0.00000       0.00000
 H  6.7453802E-02   10.46200       11.18730           0.00000       0.00000       0.00000
 C   2.554970       11.78800       13.60190           0.00000       0.00000       0.00000
 H   2.412790       11.30000       12.64230           0.00000       0.00000       0.00000
 H   2.050130       12.75300       13.56720           0.00000       0.00000       0.00000
 H   2.083280       11.13480       14.31930           0.00000       0.00000       0.00000
 H   3.592910       11.91110       13.81840           0.00000       0.00000       0.00000
 C   5.750700       1.723680       11.10660           0.00000       0.00000       0.00000
 H   4.993580       1.028980       10.75090           0.00000       0.00000       0.00000
 H   6.635300       1.179560       11.41410           0.00000       0.00000       0.00000
 H   5.320310       2.255500       11.94900           0.00000       0.00000       0.00000
 H   6.002880       2.467580       10.35960           0.00000       0.00000       0.00000
 C   10.03840       1.607390       9.932620           0.00000       0.00000       0.00000
 H   9.801330       1.940070       8.921800           0.00000       0.00000       0.00000
 H   9.271860       1.892810       10.68040           0.00000       0.00000       0.00000
 H   11.00110       1.997850       10.24710           0.00000       0.00000       0.00000
 H   10.05740      0.5107650       9.910200           0.00000       0.00000       0.00000
 C   4.712640       10.05190       11.19740           0.00000       0.00000       0.00000
 H   4.881900       9.909820       12.24800           0.00000       0.00000       0.00000
 H   3.734520       9.677930       10.89760           0.00000       0.00000       0.00000
 H   5.516430       9.564010       10.67180           0.00000       0.00000       0.00000
 H   4.783400       11.12170       10.96970           0.00000       0.00000       0.00000
 C   5.667130       14.56010       11.59430           0.00000       0.00000       0.00000
 H   5.633120       14.75210       10.51430           0.00000       0.00000       0.00000
 H   4.716490       14.09740       11.89690           0.00000       0.00000       0.00000
 H   6.460880       13.86090       11.85890           0.00000       0.00000       0.00000
 H   5.865920       15.48620       12.11770           0.00000       0.00000       0.00000
 C   7.577330       8.109160       8.343790           0.00000       0.00000       0.00000
 H   7.836890       9.156480       8.286080           0.00000       0.00000       0.00000
 H   8.154190       7.554430       7.620430           0.00000       0.00000       0.00000
 H   7.855570       7.716950       9.343560           0.00000       0.00000       0.00000
 H   6.493500       7.978750       8.201720           0.00000       0.00000       0.00000
 C   14.38000       10.95360       8.398780           0.00000       0.00000       0.00000
 H   13.80760       10.04440       8.528810           0.00000       0.00000       0.00000
 H   13.68630       11.80390       8.373080           0.00000       0.00000       0.00000
 H   14.86810       10.89690       7.430000           0.00000       0.00000       0.00000
 H   15.11350       11.08120       9.169300           0.00000       0.00000       0.00000
 C   7.403070       7.857110       1.562810           0.00000       0.00000       0.00000
 H   6.606250       7.709410      0.8220970           0.00000       0.00000       0.00000
 H   8.183550       7.112500       1.435670           0.00000       0.00000       0.00000
 H   7.854310       8.832630       1.425350           0.00000       0.00000       0.00000
 H   6.977380       7.778390       2.569010           0.00000       0.00000       0.00000
 C   9.047630       14.99020       8.562620           0.00000       0.00000       0.00000
 H   8.459000       15.82690       8.921460           0.00000       0.00000       0.00000
 H   8.557110       14.03900       8.766330           0.00000       0.00000       0.00000
 H   9.226100       15.14310       7.479410           0.00000       0.00000       0.00000
 H   10.00060       15.01370       9.065420           0.00000       0.00000       0.00000
 C   10.48770       11.58460       7.551010           0.00000       0.00000       0.00000
 H   11.35070       10.94870       7.697500           0.00000       0.00000       0.00000
 H   9.763460       11.47410       8.358010           0.00000       0.00000       0.00000
 H   10.84670       12.60820       7.493390           0.00000       0.00000       0.00000
 H   10.01910       11.34910       6.595120           0.00000       0.00000       0.00000
 C   12.83980       4.421870       4.842480           0.00000       0.00000       0.00000
 H   11.97770       4.020560       5.374190           0.00000       0.00000       0.00000
 H   13.26760       3.598830       4.278420           0.00000       0.00000       0.00000
 H   13.55770       4.781860       5.551460           0.00000       0.00000       0.00000
 H   12.53080       5.198630       4.170580           0.00000       0.00000       0.00000
 C   8.684460       5.094090       11.27320           0.00000       0.00000       0.00000
 H   8.645140       5.198920       12.36360           0.00000       0.00000       0.00000
 H   8.827730       6.102440       10.88160           0.00000       0.00000       0.00000
 H   7.722030       4.750770       10.91190           0.00000       0.00000       0.00000
 H   9.471240       4.406790       10.92900           0.00000       0.00000       0.00000
 C   4.215330       12.61430       5.346410           0.00000       0.00000       0.00000
 H   3.617350       12.44110       4.441450           0.00000       0.00000       0.00000
 H   4.617790       13.62130       5.345950           0.00000       0.00000       0.00000
 H   5.053570       11.92290       5.332150           0.00000       0.00000       0.00000
 H   3.643660       12.48850       6.263710           0.00000       0.00000       0.00000
 C   2.363710       3.722210       11.96550           0.00000       0.00000       0.00000
 H   2.155420       4.783260       11.80190           0.00000       0.00000       0.00000
 H   1.455150       3.189750       12.23700           0.00000       0.00000       0.00000
 H   2.822370       3.319070       11.06530           0.00000       0.00000       0.00000
 H   3.071320       3.627520       12.77510           0.00000       0.00000       0.00000
 C   8.628280      0.8033620       13.75520           0.00000       0.00000       0.00000
 H   9.277220      0.2456920       13.06140           0.00000       0.00000       0.00000
 H   8.569440       1.848060       13.39370           0.00000       0.00000       0.00000
 H   9.078970      0.7762740       14.75820           0.00000       0.00000       0.00000
 H   7.620830      0.3853130       13.78230           0.00000       0.00000       0.00000
 C   6.748460       11.74420       1.780240           0.00000       0.00000       0.00000
 H   6.542900       11.17510      0.8845840           0.00000       0.00000       0.00000
 H   7.659690       11.39010       2.232950           0.00000       0.00000       0.00000
 H   6.801580       12.79060       1.486170           0.00000       0.00000       0.00000
 H   5.947180       11.63340       2.510680           0.00000       0.00000       0.00000
 C   11.47250       6.223440       1.178420           0.00000       0.00000       0.00000
 H   10.67900       6.454450      0.4408590           0.00000       0.00000       0.00000
 H   12.41680       5.965940      0.6609050           0.00000       0.00000       0.00000
 H   11.18860       5.369250       1.800310           0.00000       0.00000       0.00000
 H   11.65930       7.101680       1.773470           0.00000       0.00000       0.00000
 C   6.721490       11.79490       14.58840           0.00000       0.00000       0.00000
 H   6.638480       12.86970       14.49370           0.00000       0.00000       0.00000
 H   7.714240       11.59160       15.00820           0.00000       0.00000       0.00000
 H   5.945010       11.39610       15.26510           0.00000       0.00000       0.00000
 H   6.609570       11.29750       13.61820           0.00000       0.00000       0.00000
 C   2.774340       12.44600       9.212240           0.00000       0.00000       0.00000
 H   2.441950       12.06140       10.16530           0.00000       0.00000       0.00000
 H   1.988230       13.10420       8.811620           0.00000       0.00000       0.00000
 H   3.010070       11.64820       8.521070           0.00000       0.00000       0.00000
 H   3.684280       13.04660       9.344530           0.00000       0.00000       0.00000
 C   10.24290       1.572380       6.207090           0.00000       0.00000       0.00000
 H   10.00660       2.563590       6.604690           0.00000       0.00000       0.00000
 H   9.655600      0.8285580       6.763240           0.00000       0.00000       0.00000
 H   9.969020       1.554370       5.169970           0.00000       0.00000       0.00000
 H   11.31420       1.349030       6.301310           0.00000       0.00000       0.00000
 C   6.687520      0.5360730       7.604890           0.00000       0.00000       0.00000
 H   7.603970      0.6001140       8.196430           0.00000       0.00000       0.00000
 H   5.894220       1.073140       8.115930           0.00000       0.00000       0.00000
 H   6.851770      0.9899750       6.628120           0.00000       0.00000       0.00000
 H   6.382450     -0.4916890       7.457050           0.00000       0.00000       0.00000
 C   2.073040       7.567040       12.78840           0.00000       0.00000       0.00000
 H   1.181360       7.455420       12.19660           0.00000       0.00000       0.00000
 H   1.997760       6.866240       13.62660           0.00000       0.00000       0.00000
 H   2.151250       8.575970       13.15780           0.00000       0.00000       0.00000
 H   2.951370       7.331610       12.18750           0.00000       0.00000       0.00000
 C   10.06680       2.471960       2.040880           0.00000       0.00000       0.00000
 H   9.348150       3.208190       1.689480           0.00000       0.00000       0.00000
 H   10.80200       2.353540       1.242680           0.00000       0.00000       0.00000
 H   9.577190       1.512560       2.277610           0.00000       0.00000       0.00000
 H   10.60310       2.875970       2.890070           0.00000       0.00000       0.00000
 C   8.275960       11.49350       11.03240           0.00000       0.00000       0.00000
 H   8.706580       11.38050       12.01650           0.00000       0.00000       0.00000
 H   8.472830       10.62300       10.41620           0.00000       0.00000       0.00000
 H   7.202000       11.60690       11.14150           0.00000       0.00000       0.00000
 H   8.665220       12.38300       10.55170           0.00000       0.00000       0.00000
 C   10.98830       8.988340       10.19140           0.00000       0.00000       0.00000
 H   10.24400       9.107840       9.395590           0.00000       0.00000       0.00000
 H   11.14610       9.944880       10.68110           0.00000       0.00000       0.00000
 H   10.59980       8.274740       10.90720           0.00000       0.00000       0.00000
 H   11.91700       8.628330       9.770050           0.00000       0.00000       0.00000
 C   3.580990       8.973300       7.524530           0.00000       0.00000       0.00000
 H   4.054710       9.523460       8.333870           0.00000       0.00000       0.00000
 H   3.743610       7.908110       7.631520           0.00000       0.00000       0.00000
 H   2.524820       9.183140       7.523010           0.00000       0.00000       0.00000
 H   4.043360       9.305750       6.595770           0.00000       0.00000       0.00000
 C   5.620020       6.593350       5.484530           0.00000       0.00000       0.00000
 H   4.550030       6.646230       5.689850           0.00000       0.00000       0.00000
 H   5.797750       6.400890       4.433780           0.00000       0.00000       0.00000
 H   6.074460       7.548520       5.740080           0.00000       0.00000       0.00000
 H   6.063870       5.795140       6.067340           0.00000       0.00000       0.00000
 C   11.56680       2.841460       13.34170           0.00000       0.00000       0.00000
 H   12.56130       3.258790       13.48960           0.00000       0.00000       0.00000
 H   10.93620       3.646510       12.97630           0.00000       0.00000       0.00000
 H   11.19830       2.414540       14.27570           0.00000       0.00000       0.00000
 H   11.58840       2.069240       12.58350           0.00000       0.00000       0.00000
 C   5.294030       5.152910       13.86220           0.00000       0.00000       0.00000
 H   4.416120       5.789430       13.67520           0.00000       0.00000       0.00000
 H   5.668040       4.817140       12.89670           0.00000       0.00000       0.00000
 H   4.968450       4.311340       14.46960           0.00000       0.00000       0.00000
 H   6.056180       5.695470       14.42120           0.00000       0.00000       0.00000
 C   7.529070       8.216830       12.75760           0.00000       0.00000       0.00000
 H   7.271930       8.788590       13.64470           0.00000       0.00000       0.00000
 H   8.356640       7.559740       12.97490           0.00000       0.00000       0.00000
 H   6.660090       7.616990       12.45530           0.00000       0.00000       0.00000
 H   7.806430       8.899860       11.96310           0.00000       0.00000       0.00000
 C   4.420750       8.594100       15.48650           0.00000       0.00000       0.00000
 H   4.330400       9.187870       14.57720           0.00000       0.00000       0.00000
 H   4.362440       9.241990       16.36570           0.00000       0.00000       0.00000
 H   5.380050       8.052760       15.48920           0.00000       0.00000       0.00000
 H   3.589800       7.895850       15.52060           0.00000       0.00000       0.00000
 C   13.27920       5.241340       10.99970           0.00000       0.00000       0.00000
 H   12.56430       5.869500       10.46590           0.00000       0.00000       0.00000
 H   12.87010       4.235510       11.08090           0.00000       0.00000       0.00000
 H   13.44010       5.709830       11.98250           0.00000       0.00000       0.00000
 H   14.22220       5.246170       10.48070           0.00000       0.00000       0.00000
 C   10.81510       5.402790       8.034180           0.00000       0.00000       0.00000
 H   11.81690       5.466420       7.590820           0.00000       0.00000       0.00000
 H   10.05560       5.560430       7.282250           0.00000       0.00000       0.00000
 H   10.66730       4.425800       8.475540           0.00000       0.00000       0.00000
 H   10.69270       6.176390       8.800940           0.00000       0.00000       0.00000
 C   9.108820       5.870290       4.429450           0.00000       0.00000       0.00000
 H   9.877680       6.522870       3.987050           0.00000       0.00000       0.00000
 H   8.308450       5.689920       3.721930           0.00000       0.00000       0.00000
 H   9.558520       4.921420       4.701960           0.00000       0.00000       0.00000
 H   8.720430       6.357130       5.320400           0.00000       0.00000       0.00000
 C   8.562020       4.241610       15.43450           0.00000       0.00000       0.00000
 H   7.883570       4.036500       14.62050           0.00000       0.00000       0.00000
 H   9.390100       4.844560       15.06440           0.00000       0.00000       0.00000
 H   8.050620       4.790620       16.20190           0.00000       0.00000       0.00000
 H   8.964070       3.283570       15.76540           0.00000       0.00000       0.00000
 C   11.35620       8.387110       6.208550           0.00000       0.00000       0.00000
 H   12.23630       8.702010       6.758710           0.00000       0.00000       0.00000
 H   10.92840       9.221870       5.663550           0.00000       0.00000       0.00000
 H   11.61760       7.562190       5.548630           0.00000       0.00000       0.00000
 H   10.62180       8.008240       6.920010           0.00000       0.00000       0.00000
 C   13.53070       2.472570       8.317930           0.00000       0.00000       0.00000
 H   13.97550       2.611580       9.295990           0.00000       0.00000       0.00000
 H   14.24440       2.027500       7.622350           0.00000       0.00000       0.00000
 H   12.67360       1.814260       8.416270           0.00000       0.00000       0.00000
 H   13.18470       3.422580       7.903330           0.00000       0.00000       0.00000
 C   3.414820       3.876000       6.785350           0.00000       0.00000       0.00000
 H   3.757310       3.741980       5.760560           0.00000       0.00000       0.00000
 H   3.952890       4.677650       7.247150           0.00000       0.00000       0.00000
 H   2.367690       4.112620       6.779670           0.00000       0.00000       0.00000
 H   3.587340       2.958950       7.366530           0.00000       0.00000       0.00000
 C   6.586020       3.035580       3.929590           0.00000       0.00000       0.00000
 H   5.729220       2.364000       3.917210           0.00000       0.00000       0.00000
 H   6.728160       3.440590       2.938790           0.00000       0.00000       0.00000
 H   7.478720       2.459820       4.214440           0.00000       0.00000       0.00000
 H   6.372900       3.823070       4.640030           0.00000       0.00000       0.00000
 C   14.56220       7.132190       7.652910           0.00000       0.00000       0.00000
 H   13.63300       7.207910       8.242670           0.00000       0.00000       0.00000
 H   14.31990       7.023730       6.595410           0.00000       0.00000       0.00000
 H   15.16100       8.026470       7.797320           0.00000       0.00000       0.00000
 H   15.12900       6.264870       7.980680           0.00000       0.00000       0.00000
 C   13.65330       10.67400      0.8338150           0.00000       0.00000       0.00000
 H   13.91200       9.968040      6.9327399E-02       0.00000       0.00000       0.00000
 H   12.64090       11.03380      0.6808530           0.00000       0.00000       0.00000
 H   13.69120       10.15570       1.771220           0.00000       0.00000       0.00000
 H   14.34920       11.51530      0.8239680           0.00000       0.00000       0.00000
 C   7.366240       3.943280       7.926560           0.00000       0.00000       0.00000
 H   7.797950       4.917640       8.082670           0.00000       0.00000       0.00000
 H   6.266880       3.918150       7.971980           0.00000       0.00000       0.00000
 H   7.727380       3.591940       6.945400           0.00000       0.00000       0.00000
 H   7.803450       3.307080       8.705380           0.00000       0.00000       0.00000
 C   7.980900       13.87130       4.622930           0.00000       0.00000       0.00000
 H   8.569730       13.61230       5.528700           0.00000       0.00000       0.00000
 H   8.609470       13.69910       3.756870           0.00000       0.00000       0.00000
 H   7.682100       14.92270       4.671470           0.00000       0.00000       0.00000
 H   7.120170       13.21980       4.502090           0.00000       0.00000       0.00000
 C   10.35010       13.49940       1.119540           0.00000       0.00000       0.00000
 H   10.69120       12.70470       1.787370           0.00000       0.00000       0.00000
 H   9.257280       13.55650       1.146540           0.00000       0.00000       0.00000
 H   10.71310       14.45870       1.449090           0.00000       0.00000       0.00000
 H   10.66280       13.32910      0.1105600           0.00000       0.00000       0.00000
 C   4.204840       5.477330       2.062440           0.00000       0.00000       0.00000
 H   4.450660       4.520820       1.614660           0.00000       0.00000       0.00000
 H   5.059550       6.146660       2.003040           0.00000       0.00000       0.00000
 H   3.941580       5.301240       3.096470           0.00000       0.00000       0.00000
 H   3.371170       5.913030       1.500620           0.00000       0.00000       0.00000
 C   14.41510       7.431000       3.260020           0.00000       0.00000       0.00000
 H   14.73930       6.460150       3.644030           0.00000       0.00000       0.00000
 H   14.35290       7.454630       2.186120           0.00000       0.00000       0.00000
 H   13.46600       7.656860       3.719010           0.00000       0.00000       0.00000
 H   15.13980       8.177330       3.568310           0.00000       0.00000       0.00000
 C   6.472870       12.21220       8.102570           0.00000       0.00000       0.00000
 H   5.586940       11.60860       7.844240           0.00000       0.00000       0.00000
 H   6.394590       12.61040       9.116190           0.00000       0.00000       0.00000
 H   7.353320       11.57790       8.000880           0.00000       0.00000       0.00000
 H   6.583390       13.04500       7.420650           0.00000       0.00000       0.00000
 C   12.01750       13.02010       10.88440           0.00000       0.00000       0.00000
 H   11.39550       13.22540       10.00690           0.00000       0.00000       0.00000
 H   12.95770       12.60510       10.55080           0.00000       0.00000       0.00000
 H   12.17010       13.91730       11.48050           0.00000       0.00000       0.00000
 H   11.48930       12.29110       11.47150           0.00000       0.00000       0.00000
 C   1.320280       6.840270       4.994050           0.00000       0.00000       0.00000
 H   1.790510       6.138320       4.305280           0.00000       0.00000       0.00000
 H   1.598110       7.848560       4.688530           0.00000       0.00000       0.00000
 H   1.647600       6.664410       5.987680           0.00000       0.00000       0.00000
 H  0.2376100       6.721350       4.921180           0.00000       0.00000       0.00000
 C   12.58670       14.66460       6.818540           0.00000       0.00000       0.00000
 H   13.47820       15.23370       6.560570           0.00000       0.00000       0.00000
 H   12.65240       14.30910       7.836390           0.00000       0.00000       0.00000
 H   11.71450       15.29910       6.680160           0.00000       0.00000       0.00000
 H   12.49480       13.79520       6.152390           0.00000       0.00000       0.00000
 C   13.32060       11.22520       4.809160           0.00000       0.00000       0.00000
 H   13.11820       11.81100       3.912620           0.00000       0.00000       0.00000
 H   12.37760       11.07710       5.332050           0.00000       0.00000       0.00000
 H   14.02520       11.76850       5.454540           0.00000       0.00000       0.00000
 H   13.70210       10.23990       4.534200           0.00000       0.00000       0.00000
 C   10.45110       10.48070       14.13650           0.00000       0.00000       0.00000
 H   10.52740       11.56630       14.15200           0.00000       0.00000       0.00000
 H   10.80420       10.05600       15.04470           0.00000       0.00000       0.00000
 H   9.409340       10.19080       13.97360           0.00000       0.00000       0.00000
 H   11.03590       10.08320       13.30430           0.00000       0.00000       0.00000
 C   14.59690       8.654160       11.72810           0.00000       0.00000       0.00000
 H   14.98080       7.835820       12.33410           0.00000       0.00000       0.00000
 H   14.18710       8.246480       10.82070           0.00000       0.00000       0.00000
 H   13.83580       9.222620       12.25820           0.00000       0.00000       0.00000
 H   15.38090       9.355340       11.42820           0.00000       0.00000       0.00000
 C   1.088370       6.445880       9.091990           0.00000       0.00000       0.00000
 H  0.3688430       6.800770       8.364350           0.00000       0.00000       0.00000
 H  0.5705490       5.887020       9.867760           0.00000       0.00000       0.00000
 H   1.605370       7.295910       9.562580           0.00000       0.00000       0.00000
 H   1.858990       5.841160       8.591120           0.00000       0.00000       0.00000
