#total energy=-4.09166672 eV

CRYSTAL
PRIMVEC
        75.9000000            0.00000000           0.00000000
        0.00000000            75.9000000           0.00000000
        0.00000000            0.00000000           75.9000000
PRIMCOORD
320 1
 C   7.003540       12.93780       5.721990           0.00000       0.00000       0.00000
 H   6.600650       11.95320       5.914650           0.00000       0.00000       0.00000
 H   7.127220       13.16040       4.659360           0.00000       0.00000       0.00000
 H   8.003000       12.96120       6.186570           0.00000       0.00000       0.00000
 H   6.359810       13.69090       6.168360           0.00000       0.00000       0.00000
 C   14.31580       6.884700       3.660110           0.00000       0.00000       0.00000
 H   14.53940       6.363690       2.749770           0.00000       0.00000       0.00000
 H   13.30350       7.258890       3.623500           0.00000       0.00000       0.00000
 H   14.96600       7.731400       3.745560           0.00000       0.00000       0.00000
 H   14.40070       6.232430       4.527540           0.00000       0.00000       0.00000
 C   12.78510       3.795030       3.039800           0.00000       0.00000       0.00000
 H   12.47310       2.760430       3.267130           0.00000       0.00000       0.00000
 H   13.63380       3.830530       2.353220           0.00000       0.00000       0.00000
 H   11.95750       4.335980       2.605520           0.00000       0.00000       0.00000
 H   13.05870       4.276700       3.976680           0.00000       0.00000       0.00000
 C   5.368750       3.083900       14.29560           0.00000       0.00000       0.00000
 H   5.827490       3.193220       13.31360           0.00000       0.00000       0.00000
 H   5.458990       4.016040       14.87800           0.00000       0.00000       0.00000
 H   4.301250       2.894570       14.12840           0.00000       0.00000       0.00000
 H   5.803320       2.260130       14.84280           0.00000       0.00000       0.00000
 C   12.80430       8.737680       11.79670           0.00000       0.00000       0.00000
 H   13.52940       8.651680       10.99170           0.00000       0.00000       0.00000
 H   12.78950       7.802280       12.34780           0.00000       0.00000       0.00000
 H   13.13610       9.561830       12.44660           0.00000       0.00000       0.00000
 H   11.81890       8.987050       11.39340           0.00000       0.00000       0.00000
 C   10.19610       7.439750       1.953470           0.00000       0.00000       0.00000
 H   11.25490       7.398940       1.641360           0.00000       0.00000       0.00000
 H   9.773880       6.433780       1.791030           0.00000       0.00000       0.00000
 H   10.15740       7.686040       3.012850           0.00000       0.00000       0.00000
 H   9.654740       8.190720       1.372490           0.00000       0.00000       0.00000
 C  0.8847990       11.28040       9.065960           0.00000       0.00000       0.00000
 H  0.1820330       12.04340       8.741070           0.00000       0.00000       0.00000
 H   1.362670       11.55620       9.996900           0.00000       0.00000       0.00000
 H  0.3904770       10.31760       9.260000           0.00000       0.00000       0.00000
 H   1.637860       11.11490       8.288380           0.00000       0.00000       0.00000
 C   2.724910       5.553470       13.40110           0.00000       0.00000       0.00000
 H   2.413680       6.044020       12.49460           0.00000       0.00000       0.00000
 H   2.497770       6.200040       14.25120           0.00000       0.00000       0.00000
 H   3.794020       5.374110       13.36320           0.00000       0.00000       0.00000
 H   2.210890       4.592660       13.49810           0.00000       0.00000       0.00000
 C   14.32070       3.506020       7.212450           0.00000       0.00000       0.00000
 H   14.88780       2.839120       6.566310           0.00000       0.00000       0.00000
 H   14.23790       4.513790       6.821000           0.00000       0.00000       0.00000
 H   13.32610       3.096220       7.309810           0.00000       0.00000       0.00000
 H   14.86380       3.543220       8.157460           0.00000       0.00000       0.00000
 C   9.184500       8.841260       9.705250           0.00000       0.00000       0.00000
 H   9.334040       9.632350       10.42830           0.00000       0.00000       0.00000
 H   9.865240       8.926230       8.852200           0.00000       0.00000       0.00000
 H   9.364910       7.885300       10.21960           0.00000       0.00000       0.00000
 H   8.133660       8.866290       9.438710           0.00000       0.00000       0.00000
 C   12.11620       11.23910       8.852600           0.00000       0.00000       0.00000
 H   13.18080       11.11630       8.681970           0.00000       0.00000       0.00000
 H   11.55410       10.82570       8.013230           0.00000       0.00000       0.00000
 H   11.89280       10.68400       9.749190           0.00000       0.00000       0.00000
 H   11.89580       12.29420       8.987380           0.00000       0.00000       0.00000
 C   8.116170       9.887320       17.01230           0.00000       0.00000       0.00000
 H   8.251130       10.65410       17.78480           0.00000       0.00000       0.00000
 H   7.582140       9.037590       17.43870           0.00000       0.00000       0.00000
 H   9.055480       9.580100       16.58600           0.00000       0.00000       0.00000
 H   7.448370       10.26650       16.24590           0.00000       0.00000       0.00000
 C  0.9962080       7.575300       9.935190           0.00000       0.00000       0.00000
 H   1.698270       6.835620       9.610300           0.00000       0.00000       0.00000
 H  0.4616580       7.193640       10.79580           0.00000       0.00000       0.00000
 H  0.2856790       7.756380       9.109540           0.00000       0.00000       0.00000
 H   1.505370       8.480000       10.21240           0.00000       0.00000       0.00000
 C   7.401460       5.259150       8.341560           0.00000       0.00000       0.00000
 H   7.054830       4.456450       8.972290           0.00000       0.00000       0.00000
 H   7.854820       6.021730       8.955340           0.00000       0.00000       0.00000
 H   6.531580       5.671880       7.838370           0.00000       0.00000       0.00000
 H   8.099900       4.863710       7.591840           0.00000       0.00000       0.00000
 C   4.381460       3.699730       10.29060           0.00000       0.00000       0.00000
 H   3.465160       4.247810       10.41620           0.00000       0.00000       0.00000
 H   4.415590       2.932700       11.03390           0.00000       0.00000       0.00000
 H   4.451060       3.268640       9.304660           0.00000       0.00000       0.00000
 H   5.190190       4.384580       10.48490           0.00000       0.00000       0.00000
 C   3.313310       6.276570       7.092480           0.00000       0.00000       0.00000
 H   4.009370       6.063410       6.274390           0.00000       0.00000       0.00000
 H   3.111560       7.346210       7.106540           0.00000       0.00000       0.00000
 H   2.402810       5.717480       6.962780           0.00000       0.00000       0.00000
 H   3.814950       5.999260       8.031180           0.00000       0.00000       0.00000
 C   9.923200       2.080730       13.18670           0.00000       0.00000       0.00000
 H   9.626410       2.923800       12.58130           0.00000       0.00000       0.00000
 H   9.223810       1.947370       14.01840           0.00000       0.00000       0.00000
 H   10.94830       2.256320       13.52590           0.00000       0.00000       0.00000
 H   9.914930       1.162160       12.59070           0.00000       0.00000       0.00000
 C   9.051880       4.273380       15.84020           0.00000       0.00000       0.00000
 H   8.517960       4.873600       16.59500           0.00000       0.00000       0.00000
 H   9.602860       3.425940       16.26800           0.00000       0.00000       0.00000
 H   8.306970       3.892910       15.15170           0.00000       0.00000       0.00000
 H   9.734990       4.925640       15.29470           0.00000       0.00000       0.00000
 C   14.26620       12.60830       11.83670           0.00000       0.00000       0.00000
 H   14.28950       12.36650       12.88950           0.00000       0.00000       0.00000
 H   15.22140       12.29460       11.41020           0.00000       0.00000       0.00000
 H   13.43910       12.07640       11.34650           0.00000       0.00000       0.00000
 H   14.17030       13.71020       11.70070           0.00000       0.00000       0.00000
 C   6.904680       9.787790       12.44570           0.00000       0.00000       0.00000
 H   7.037310       10.09240       11.39880           0.00000       0.00000       0.00000
 H   7.270070       10.52400       13.13240           0.00000       0.00000       0.00000
 H   5.855460       9.567960       12.65470           0.00000       0.00000       0.00000
 H   7.486800       8.892120       12.63600           0.00000       0.00000       0.00000
 C   5.821210       13.42650       12.44050           0.00000       0.00000       0.00000
 H   6.816570       13.13930       12.71550           0.00000       0.00000       0.00000
 H   5.331700       12.61670       11.91610           0.00000       0.00000       0.00000
 H   5.858400       14.27630       11.75500           0.00000       0.00000       0.00000
 H   5.305200       13.73180       13.33060           0.00000       0.00000       0.00000
 C  0.9971270       9.105690       5.996730           0.00000       0.00000       0.00000
 H  0.7360710       8.176850       6.496020           0.00000       0.00000       0.00000
 H  0.2580460       9.847510       6.285430           0.00000       0.00000       0.00000
 H  0.9475550       8.976000       4.925030           0.00000       0.00000       0.00000
 H   2.001440       9.431330       6.255360           0.00000       0.00000       0.00000
 C   16.35360       10.14190       9.300990           0.00000       0.00000       0.00000
 H   15.99900       10.23060       8.259650           0.00000       0.00000       0.00000
 H   17.20060       9.435390       9.369030           0.00000       0.00000       0.00000
 H   15.52510       9.804270       9.927270           0.00000       0.00000       0.00000
 H   16.69030       11.10520       9.689370           0.00000       0.00000       0.00000
 C   9.977500       2.181440       7.936160           0.00000       0.00000       0.00000
 H   9.537080       2.603460       8.841360           0.00000       0.00000       0.00000
 H   10.00850       2.948490       7.151580           0.00000       0.00000       0.00000
 H   10.98690       1.835070       8.134900           0.00000       0.00000       0.00000
 H   9.369540       1.359740       7.617630           0.00000       0.00000       0.00000
 C   10.25330       11.97200       12.46760           0.00000       0.00000       0.00000
 H   10.81410       12.55980       11.76790           0.00000       0.00000       0.00000
 H   9.189990       12.10850       12.26680           0.00000       0.00000       0.00000
 H   10.49710       12.32190       13.46700           0.00000       0.00000       0.00000
 H   10.52290       10.93260       12.37640           0.00000       0.00000       0.00000
 C   12.18360       15.43990       10.31010           0.00000       0.00000       0.00000
 H   12.52350       14.42490       10.08500           0.00000       0.00000       0.00000
 H   12.74160       15.85740       11.12910           0.00000       0.00000       0.00000
 H   12.27500       16.03160       9.429780           0.00000       0.00000       0.00000
 H   11.15920       15.44760       10.62270           0.00000       0.00000       0.00000
 C   10.81530       4.987950       10.16840           0.00000       0.00000       0.00000
 H   10.84290       4.819340       9.093010           0.00000       0.00000       0.00000
 H   11.71640       5.509080       10.50630           0.00000       0.00000       0.00000
 H   10.74690       4.043600       10.68820           0.00000       0.00000       0.00000
 H   9.900760       5.556330       10.40060           0.00000       0.00000       0.00000
 C   14.85690       13.59380       7.620570           0.00000       0.00000       0.00000
 H   14.03710       12.94030       7.314900           0.00000       0.00000       0.00000
 H   14.50210       14.62150       7.570430           0.00000       0.00000       0.00000
 H   15.18720       13.37870       8.640590           0.00000       0.00000       0.00000
 H   15.69400       13.48850       6.934290           0.00000       0.00000       0.00000
 C   8.306260       13.34740       15.35590           0.00000       0.00000       0.00000
 H   9.181620       13.86970       14.94480           0.00000       0.00000       0.00000
 H   8.055680       12.53580       14.66900           0.00000       0.00000       0.00000
 H   7.466590       14.06350       15.48810           0.00000       0.00000       0.00000
 H   8.565440       12.91150       16.33430           0.00000       0.00000       0.00000
 C   12.92410       7.507750       7.955390           0.00000       0.00000       0.00000
 H   13.76540       7.450630       8.655630           0.00000       0.00000       0.00000
 H   13.33620       7.344680       6.944340           0.00000       0.00000       0.00000
 H   12.23650       6.724940       8.203280           0.00000       0.00000       0.00000
 H   12.41770       8.486850       8.008250           0.00000       0.00000       0.00000
 C   9.290730       2.463690       3.906620           0.00000       0.00000       0.00000
 H   9.600690       3.146970       3.112630           0.00000       0.00000       0.00000
 H   10.01590       2.435870       4.690640           0.00000       0.00000       0.00000
 H   8.331480       2.795710       4.301860           0.00000       0.00000       0.00000
 H   9.166420       1.452540       3.517880           0.00000       0.00000       0.00000
 C   5.320620       7.627540       14.97780           0.00000       0.00000       0.00000
 H   5.073860       7.395460       13.97930           0.00000       0.00000       0.00000
 H   4.540010       8.238440       15.44980           0.00000       0.00000       0.00000
 H   6.245070       8.207010       14.93610           0.00000       0.00000       0.00000
 H   5.505160       6.712110       15.55280           0.00000       0.00000       0.00000
 C   3.496630       14.49610       7.795250           0.00000       0.00000       0.00000
 H   2.782780       13.78810       8.188630           0.00000       0.00000       0.00000
 H   4.424650       14.35690       8.356990           0.00000       0.00000       0.00000
 H   3.122130       15.50990       7.941600           0.00000       0.00000       0.00000
 H   3.654380       14.27060       6.759430           0.00000       0.00000       0.00000
 C   3.388890       7.835460       3.699780           0.00000       0.00000       0.00000
 H   4.078890       8.196030       4.463260           0.00000       0.00000       0.00000
 H   2.568480       7.265480       4.176930           0.00000       0.00000       0.00000
 H   2.966330       8.704430       3.214180           0.00000       0.00000       0.00000
 H   3.953310       7.211010       2.986840           0.00000       0.00000       0.00000
 C   5.417000       2.754900       6.108030           0.00000       0.00000       0.00000
 H   5.230280       1.795600       6.583810           0.00000       0.00000       0.00000
 H   6.455840       3.039360       6.245890           0.00000       0.00000       0.00000
 H   5.148480       2.677320       5.063840           0.00000       0.00000       0.00000
 H   4.784940       3.519820       6.574790           0.00000       0.00000       0.00000
 C   13.67780       14.46780       4.137480           0.00000       0.00000       0.00000
 H   12.90840       14.48140       4.938410           0.00000       0.00000       0.00000
 H   14.11640       13.46740       4.062100           0.00000       0.00000       0.00000
 H   13.17630       14.78100       3.206800           0.00000       0.00000       0.00000
 H   14.46990       15.15230       4.341870           0.00000       0.00000       0.00000
 C   11.98980       15.14280       14.25300           0.00000       0.00000       0.00000
 H   12.62640       14.43860       13.74050           0.00000       0.00000       0.00000
 H   12.46800       16.11700       14.23150           0.00000       0.00000       0.00000
 H   10.99530       15.16130       13.75750           0.00000       0.00000       0.00000
 H   11.85660       14.85350       15.27840           0.00000       0.00000       0.00000
 C   4.647280       11.51140       15.60960           0.00000       0.00000       0.00000
 H   3.937220       10.76870       15.95720           0.00000       0.00000       0.00000
 H   5.286000       11.09420       14.80650           0.00000       0.00000       0.00000
 H   5.324210       11.79640       16.44670           0.00000       0.00000       0.00000
 H   4.119740       12.35790       15.19620           0.00000       0.00000       0.00000
 C   7.139230       6.068320       4.496730           0.00000       0.00000       0.00000
 H   7.791310       5.662130       3.727190           0.00000       0.00000       0.00000
 H   6.093090       5.897100       4.204150           0.00000       0.00000       0.00000
 H   7.288820       7.148050       4.528100           0.00000       0.00000       0.00000
 H   7.326940       5.578220       5.454950           0.00000       0.00000       0.00000
 C   10.63610       5.756850       5.534510           0.00000       0.00000       0.00000
 H   11.43880       5.195800       5.967340           0.00000       0.00000       0.00000
 H   10.03140       6.151970       6.344930           0.00000       0.00000       0.00000
 H   11.07740       6.626700       5.022890           0.00000       0.00000       0.00000
 H   10.03710       5.163500       4.826230           0.00000       0.00000       0.00000
 C   15.12900       5.393160       10.45330           0.00000       0.00000       0.00000
 H   14.19520       4.922360       10.13460           0.00000       0.00000       0.00000
 H   15.67290       5.802360       9.590770           0.00000       0.00000       0.00000
 H   15.77400       4.635320       10.90760           0.00000       0.00000       0.00000
 H   14.90530       6.182640       11.16560           0.00000       0.00000       0.00000
 C   6.763750       9.816300       2.609790           0.00000       0.00000       0.00000
 H   5.685700       9.721660       2.766930           0.00000       0.00000       0.00000
 H   6.952210       10.45870       1.761340           0.00000       0.00000       0.00000
 H   7.244090       8.838670       2.452170           0.00000       0.00000       0.00000
 H   7.226940       10.25660       3.486270           0.00000       0.00000       0.00000
 C   7.571240       5.674870       12.35110           0.00000       0.00000       0.00000
 H   7.991730       4.841280       11.78280           0.00000       0.00000       0.00000
 H   7.634260       6.595320       11.77450           0.00000       0.00000       0.00000
 H   6.526570       5.468930       12.60400           0.00000       0.00000       0.00000
 H   8.138510       5.785200       13.27820           0.00000       0.00000       0.00000
 C   2.494180       9.927590       12.74770           0.00000       0.00000       0.00000
 H   2.692610       10.80140       13.37330           0.00000       0.00000       0.00000
 H   2.597590       9.033320       13.38020           0.00000       0.00000       0.00000
 H   1.499150       9.958580       12.34450           0.00000       0.00000       0.00000
 H   3.193630       9.905500       11.90400           0.00000       0.00000       0.00000
 C   16.65660       7.615570       6.462940           0.00000       0.00000       0.00000
 H   15.61560       7.635790       6.728570           0.00000       0.00000       0.00000
 H   16.78070       6.994740       5.608260           0.00000       0.00000       0.00000
 H   16.94970       8.631070       6.171240           0.00000       0.00000       0.00000
 H   17.28270       7.244480       7.283550           0.00000       0.00000       0.00000
 C   1.798550       13.78190       12.16290           0.00000       0.00000       0.00000
 H   1.272800       14.11560       11.26730           0.00000       0.00000       0.00000
 H   2.880700       13.87790       12.00140           0.00000       0.00000       0.00000
 H   1.490870       14.40640       13.01910           0.00000       0.00000       0.00000
 H   1.576320       12.74480       12.38730           0.00000       0.00000       0.00000
 C   7.279100       1.224560       10.58570           0.00000       0.00000       0.00000
 H   7.328510       2.291460       10.32080           0.00000       0.00000       0.00000
 H   6.395170      0.7540890       10.10190           0.00000       0.00000       0.00000
 H   8.157540      0.7600810       10.18060           0.00000       0.00000       0.00000
 H   7.274190       1.129400       11.66100           0.00000       0.00000       0.00000
 C   13.64350       10.39210       5.334880           0.00000       0.00000       0.00000
 H   14.10080       10.76240       4.426300           0.00000       0.00000       0.00000
 H   12.89370       11.10030       5.734340           0.00000       0.00000       0.00000
 H   13.15520       9.439800       5.112600           0.00000       0.00000       0.00000
 H   14.46770       10.28570       6.050370           0.00000       0.00000       0.00000
 C   3.814780       11.36510       4.756450           0.00000       0.00000       0.00000
 H   4.276730       12.33220       4.543910           0.00000       0.00000       0.00000
 H   3.082770       11.41880       5.569030           0.00000       0.00000       0.00000
 H   4.628240       10.66750       4.968000           0.00000       0.00000       0.00000
 H   3.246730       11.02580       3.902080           0.00000       0.00000       0.00000
 C   10.57830       11.92230       3.468030           0.00000       0.00000       0.00000
 H   11.05260       10.96490       3.229810           0.00000       0.00000       0.00000
 H   11.27740       12.55100       4.004270           0.00000       0.00000       0.00000
 H   10.27620       12.46010       2.564010           0.00000       0.00000       0.00000
 H   9.692810       11.71210       4.072340           0.00000       0.00000       0.00000
 C   6.179510       8.970900       6.980400           0.00000       0.00000       0.00000
 H   6.797570       8.207580       7.418820           0.00000       0.00000       0.00000
 H   6.571240       9.943220       7.285420           0.00000       0.00000       0.00000
 H   6.171760       8.893290       5.898100           0.00000       0.00000       0.00000
 H   5.151050       8.896350       7.323130           0.00000       0.00000       0.00000
 C   8.475430       16.50700       12.25710           0.00000       0.00000       0.00000
 H   8.230580       17.09800       13.11900           0.00000       0.00000       0.00000
 H   7.891500       16.79180       11.39810           0.00000       0.00000       0.00000
 H   9.536460       16.61150       12.01580           0.00000       0.00000       0.00000
 H   8.270570       15.48230       12.55430           0.00000       0.00000       0.00000
 C   12.70500       11.24920       15.50560           0.00000       0.00000       0.00000
 H   11.77500       10.74860       15.77560           0.00000       0.00000       0.00000
 H   12.63000       12.25650       15.95930           0.00000       0.00000       0.00000
 H   12.69010       11.36430       14.41640           0.00000       0.00000       0.00000
 H   13.59470       10.69960       15.83430           0.00000       0.00000       0.00000
 C   4.805670       7.730340       10.28960           0.00000       0.00000       0.00000
 H   4.486980       7.875080       11.33310           0.00000       0.00000       0.00000
 H   5.125170       6.718390       10.20800           0.00000       0.00000       0.00000
 H   4.022420       7.998490       9.595580           0.00000       0.00000       0.00000
 H   5.653610       8.380770       10.10980           0.00000       0.00000       0.00000
 C   13.07670       1.936900       10.70080           0.00000       0.00000       0.00000
 H   13.84910       1.394710       10.15810           0.00000       0.00000       0.00000
 H   13.47620       2.215590       11.67720           0.00000       0.00000       0.00000
 H   12.16400       1.319540       10.83130           0.00000       0.00000       0.00000
 H   12.81870       2.824730       10.13790           0.00000       0.00000       0.00000
 C   10.07210       8.121700       14.24050           0.00000       0.00000       0.00000
 H   9.132620       7.753580       14.62070           0.00000       0.00000       0.00000
 H   10.82860       7.892540       14.97670           0.00000       0.00000       0.00000
 H   10.30850       7.565020       13.33680           0.00000       0.00000       0.00000
 H   9.973170       9.179120       14.03220           0.00000       0.00000       0.00000
 C   9.462780       9.254960       5.760930           0.00000       0.00000       0.00000
 H   9.042490       8.256760       5.906770           0.00000       0.00000       0.00000
 H   9.274750       9.545180       4.717540           0.00000       0.00000       0.00000
 H   9.022430       9.969540       6.452780           0.00000       0.00000       0.00000
 H   10.53260       9.231490       5.924800           0.00000       0.00000       0.00000
 C   8.120810       12.49880       9.446390           0.00000       0.00000       0.00000
 H   7.670400       12.10550       10.35320           0.00000       0.00000       0.00000
 H   8.573770       11.69210       8.893110           0.00000       0.00000       0.00000
 H   7.368770       12.88430       8.782410           0.00000       0.00000       0.00000
 H   8.844840       13.29080       9.735730           0.00000       0.00000       0.00000
 C   7.228570       16.31040       8.235230           0.00000       0.00000       0.00000
 H   6.511310       15.92500       8.963410           0.00000       0.00000       0.00000
 H   6.728230       17.03930       7.566760           0.00000       0.00000       0.00000
 H   7.681530       15.46620       7.670280           0.00000       0.00000       0.00000
 H   8.049780       16.79580       8.761100           0.00000       0.00000       0.00000
 C   4.616740       11.28420       9.255930           0.00000       0.00000       0.00000
 H   4.112470       10.32330       9.147740           0.00000       0.00000       0.00000
 H   4.839610       11.66800       8.247630           0.00000       0.00000       0.00000
 H   3.946600       11.98240       9.767090           0.00000       0.00000       0.00000
 H   5.533790       11.14470       9.833590           0.00000       0.00000       0.00000
 C   13.30610       10.18400       1.455910           0.00000       0.00000       0.00000
 H   13.77180       11.16580       1.553490           0.00000       0.00000       0.00000
 H   13.17150       9.806020       2.461670           0.00000       0.00000       0.00000
 H   13.99920       9.538640      0.8765730           0.00000       0.00000       0.00000
 H   12.36690       10.26070      0.9183910           0.00000       0.00000       0.00000
 C   12.60090       4.977440       13.58360           0.00000       0.00000       0.00000
 H   12.78980       5.889460       14.13690           0.00000       0.00000       0.00000
 H   13.27100       4.890530       12.72110           0.00000       0.00000       0.00000
 H   12.73700       4.157860       14.29950           0.00000       0.00000       0.00000
 H   11.57920       4.927440       13.23620           0.00000       0.00000       0.00000
 C   10.63760       14.45680       6.872240           0.00000       0.00000       0.00000
 H   10.01440       14.97910       6.122130           0.00000       0.00000       0.00000
 H   10.16570       14.46250       7.858780           0.00000       0.00000       0.00000
 H   10.80670       13.42710       6.526810           0.00000       0.00000       0.00000
 H   11.62310       14.94630       6.909720           0.00000       0.00000       0.00000
 C   12.06090      0.5234880       5.517930           0.00000       0.00000       0.00000
 H   11.37550      7.7384397E-02   6.194880           0.00000       0.00000       0.00000
 H   11.78250      0.3776660       4.487820           0.00000       0.00000       0.00000
 H   13.06390      0.1115360       5.633270           0.00000       0.00000       0.00000
 H   12.12310       1.581210       5.703050           0.00000       0.00000       0.00000
