#total energy=-3.91663264 eV

CRYSTAL
PRIMVEC
        75.9000000            0.00000000           0.00000000
        0.00000000            75.9000000           0.00000000
        0.00000000            0.00000000           75.9000000
PRIMCOORD
320 1
 C   13.26900       8.157890       12.93980           0.00000       0.00000       0.00000
 H   12.51740       8.896490       12.64440           0.00000       0.00000       0.00000
 H   13.43760       7.505440       12.11380           0.00000       0.00000       0.00000
 H   12.91930       7.560670       13.77700           0.00000       0.00000       0.00000
 H   14.16930       8.672820       13.23900           0.00000       0.00000       0.00000
 C   5.474650       3.784090       13.87380           0.00000       0.00000       0.00000
 H   5.927560       2.900500       14.29560           0.00000       0.00000       0.00000
 H   5.146420       3.531680       12.86240           0.00000       0.00000       0.00000
 H   6.218930       4.586890       13.84430           0.00000       0.00000       0.00000
 H   4.641170       4.088650       14.53300           0.00000       0.00000       0.00000
 C   7.474310       10.66980       3.304030           0.00000       0.00000       0.00000
 H   7.791650       9.934090       2.557110           0.00000       0.00000       0.00000
 H   8.278730       11.37970       3.458720           0.00000       0.00000       0.00000
 H   6.575940       11.19150       2.963430           0.00000       0.00000       0.00000
 H   7.264290       10.11670       4.201450           0.00000       0.00000       0.00000
 C   8.151320       14.60230       12.51150           0.00000       0.00000       0.00000
 H   7.417640       13.82690       12.38820           0.00000       0.00000       0.00000
 H   8.576700       14.87320       11.52410           0.00000       0.00000       0.00000
 H   7.689250       15.47780       12.96360           0.00000       0.00000       0.00000
 H   8.930030       14.22700       13.16080           0.00000       0.00000       0.00000
 C   4.918100       16.71690       11.21540           0.00000       0.00000       0.00000
 H   3.855130       16.60960       10.96190           0.00000       0.00000       0.00000
 H   5.367430       15.74340       11.35370           0.00000       0.00000       0.00000
 H   5.463160       17.19400       10.39460           0.00000       0.00000       0.00000
 H   5.013140       17.30580       12.11620           0.00000       0.00000       0.00000
 C   9.730460       18.24660       12.35570           0.00000       0.00000       0.00000
 H   10.10110       17.58640       13.15170           0.00000       0.00000       0.00000
 H   9.296180       19.15400       12.78670           0.00000       0.00000       0.00000
 H   10.59480       18.53150       11.71000           0.00000       0.00000       0.00000
 H   9.020590       17.73330       11.73680           0.00000       0.00000       0.00000
 C   15.91450       2.289800       12.00870           0.00000       0.00000       0.00000
 H   14.94730       2.603320       11.57250           0.00000       0.00000       0.00000
 H   16.14130       2.873180       12.88530           0.00000       0.00000       0.00000
 H   15.91380       1.231080       12.25220           0.00000       0.00000       0.00000
 H   16.68250       2.429250       11.25880           0.00000       0.00000       0.00000
 C   8.834670       4.827140       7.986960           0.00000       0.00000       0.00000
 H   9.489230       4.313730       7.273930           0.00000       0.00000       0.00000
 H   7.931120       5.193300       7.541070           0.00000       0.00000       0.00000
 H   9.349230       5.669980       8.407740           0.00000       0.00000       0.00000
 H   8.608460       4.126600       8.794070           0.00000       0.00000       0.00000
 C   7.335900       15.16610       8.562980           0.00000       0.00000       0.00000
 H   6.319840       15.13320       8.222190           0.00000       0.00000       0.00000
 H   7.553860       16.13020       9.051150           0.00000       0.00000       0.00000
 H   7.465090       14.39310       9.312350           0.00000       0.00000       0.00000
 H   8.052500       15.04510       7.736140           0.00000       0.00000       0.00000
 C  0.8744590       13.24400       10.74040           0.00000       0.00000       0.00000
 H   1.598880       13.73180       11.38900           0.00000       0.00000       0.00000
 H  0.2540160       12.60860       11.33100           0.00000       0.00000       0.00000
 H  0.2641470       13.97340       10.21860           0.00000       0.00000       0.00000
 H   1.434840       12.63390       10.01740           0.00000       0.00000       0.00000
 C   8.166630       16.67530       4.982400           0.00000       0.00000       0.00000
 H   9.175950       16.52160       4.596950           0.00000       0.00000       0.00000
 H   7.630020       17.39380       4.387550           0.00000       0.00000       0.00000
 H   7.654120       15.73300       4.966080           0.00000       0.00000       0.00000
 H   8.196170       17.01150       6.012640           0.00000       0.00000       0.00000
 C   13.44910       4.524040       13.92670           0.00000       0.00000       0.00000
 H   13.91640       5.107970       13.12220           0.00000       0.00000       0.00000
 H   14.22670       4.223610       14.63690           0.00000       0.00000       0.00000
 H   12.93950       3.653420       13.49260           0.00000       0.00000       0.00000
 H   12.68090       5.128050       14.40330           0.00000       0.00000       0.00000
 C   10.65750       4.525870       4.282730           0.00000       0.00000       0.00000
 H   11.45870       4.402680       4.997910           0.00000       0.00000       0.00000
 H   11.00420       4.106300       3.337980           0.00000       0.00000       0.00000
 H   10.42890       5.573080       4.164230           0.00000       0.00000       0.00000
 H   9.731980       4.031050       4.610480           0.00000       0.00000       0.00000
 C   5.227470       7.242790       14.87890           0.00000       0.00000       0.00000
 H   6.272570       7.480250       14.72270           0.00000       0.00000       0.00000
 H   4.675180       8.150610       15.01680           0.00000       0.00000       0.00000
 H   5.138620       6.576920       15.73290           0.00000       0.00000       0.00000
 H   4.853190       6.708430       13.98860           0.00000       0.00000       0.00000
 C   7.162040       5.445980       11.05310           0.00000       0.00000       0.00000
 H   7.661240       4.497980       11.31320           0.00000       0.00000       0.00000
 H   7.947930       6.137760       10.71620           0.00000       0.00000       0.00000
 H   6.456450       5.287220       10.23330           0.00000       0.00000       0.00000
 H   6.667180       5.869010       11.93160           0.00000       0.00000       0.00000
 C   7.377920       11.37080       14.30810           0.00000       0.00000       0.00000
 H   8.024360       10.85670       13.59410           0.00000       0.00000       0.00000
 H   7.500850       10.93660       15.29620           0.00000       0.00000       0.00000
 H   7.603940       12.43090       14.36300           0.00000       0.00000       0.00000
 H   6.352990       11.16750       14.00250           0.00000       0.00000       0.00000
 C   14.29390       3.102000       7.684110           0.00000       0.00000       0.00000
 H   15.30440       3.396570       7.394620           0.00000       0.00000       0.00000
 H   14.26450       2.005560       7.810970           0.00000       0.00000       0.00000
 H   13.62410       3.359950       6.864560           0.00000       0.00000       0.00000
 H   13.97270       3.595480       8.601850           0.00000       0.00000       0.00000
 C   11.06450       15.17530       9.528660           0.00000       0.00000       0.00000
 H   10.16280       14.65260       9.263380           0.00000       0.00000       0.00000
 H   11.50930       14.85450       10.45540           0.00000       0.00000       0.00000
 H   11.79670       14.98460       8.715780           0.00000       0.00000       0.00000
 H   10.85200       16.20700       9.571470           0.00000       0.00000       0.00000
 C   2.704940       10.41820       13.07580           0.00000       0.00000       0.00000
 H   2.659720       9.367650       12.85660           0.00000       0.00000       0.00000
 H   3.717350       10.82990       12.82990           0.00000       0.00000       0.00000
 H   1.939630       10.87090       12.45520           0.00000       0.00000       0.00000
 H   2.442440       10.60250       14.10900           0.00000       0.00000       0.00000
 C   12.33790       14.90500       13.55090           0.00000       0.00000       0.00000
 H   12.33520       13.82300       13.66570           0.00000       0.00000       0.00000
 H   11.38610       15.24090       13.12770           0.00000       0.00000       0.00000
 H   12.46790       15.34730       14.55320           0.00000       0.00000       0.00000
 H   13.15940       15.19500       12.91840           0.00000       0.00000       0.00000
 C   15.35250       9.561120       6.350150           0.00000       0.00000       0.00000
 H   15.92090       9.358380       7.240120           0.00000       0.00000       0.00000
 H   15.55450       10.62200       6.097370           0.00000       0.00000       0.00000
 H   14.30600       9.438500       6.558180           0.00000       0.00000       0.00000
 H   15.69370       8.887450       5.574700           0.00000       0.00000       0.00000
 C   17.14010       6.150790       7.352550           0.00000       0.00000       0.00000
 H   16.15830       6.355140       6.931130           0.00000       0.00000       0.00000
 H   17.24600       6.644180       8.335330           0.00000       0.00000       0.00000
 H   17.92090       6.538080       6.692650           0.00000       0.00000       0.00000
 H   17.26020       5.068060       7.451450           0.00000       0.00000       0.00000
 C   7.512620       4.305120       17.36810           0.00000       0.00000       0.00000
 H   8.393500       4.044520       16.77790           0.00000       0.00000       0.00000
 H   7.478180       5.393300       17.52690           0.00000       0.00000       0.00000
 H   7.543400       3.811470       18.32660           0.00000       0.00000       0.00000
 H   6.625960       4.062740       16.79250           0.00000       0.00000       0.00000
 C   14.75620       9.607200       9.845780           0.00000       0.00000       0.00000
 H   14.94980       8.644800       9.385920           0.00000       0.00000       0.00000
 H   13.71980       9.653880       10.18390           0.00000       0.00000       0.00000
 H   15.38000       9.731100       10.72310           0.00000       0.00000       0.00000
 H   14.92070       10.43290       9.134880           0.00000       0.00000       0.00000
 C   8.841790       1.173840       10.98590           0.00000       0.00000       0.00000
 H   9.600750      0.7902110       11.67830           0.00000       0.00000       0.00000
 H   9.239020       2.063020       10.48370           0.00000       0.00000       0.00000
 H   7.966370       1.447200       11.57370           0.00000       0.00000       0.00000
 H   8.551500      0.4518550       10.23780           0.00000       0.00000       0.00000
 C   15.17640       5.468410       10.48780           0.00000       0.00000       0.00000
 H   15.94350       4.716780       10.30530           0.00000       0.00000       0.00000
 H   14.20460       5.006350       10.64780           0.00000       0.00000       0.00000
 H   15.46270       6.069170       11.33860           0.00000       0.00000       0.00000
 H   15.13050       6.149430       9.642910           0.00000       0.00000       0.00000
 C   4.957760       2.528260       9.649910           0.00000       0.00000       0.00000
 H   4.318630       3.418650       9.662780           0.00000       0.00000       0.00000
 H   4.449720       1.601830       9.934700           0.00000       0.00000       0.00000
 H   5.789000       2.683920       10.30100           0.00000       0.00000       0.00000
 H   5.312900       2.389740       8.636500           0.00000       0.00000       0.00000
 C   6.226240       8.150930       7.873730           0.00000       0.00000       0.00000
 H   6.641930       9.147180       8.086720           0.00000       0.00000       0.00000
 H   6.262990       7.962960       6.796680           0.00000       0.00000       0.00000
 H   6.761770       7.375150       8.432630           0.00000       0.00000       0.00000
 H   5.188020       8.154720       8.198460           0.00000       0.00000       0.00000
 C   4.711090       12.52090       9.967460           0.00000       0.00000       0.00000
 H   4.711200       11.64590       9.316620           0.00000       0.00000       0.00000
 H   4.710090       13.43080       9.353530           0.00000       0.00000       0.00000
 H   5.655310       12.47790       10.53030           0.00000       0.00000       0.00000
 H   3.877340       12.48710       10.66540           0.00000       0.00000       0.00000
 C   2.118410       12.50180       6.803730           0.00000       0.00000       0.00000
 H   2.212250       11.56760       6.244540           0.00000       0.00000       0.00000
 H   2.916300       12.51340       7.539090           0.00000       0.00000       0.00000
 H   2.180760       13.32750       6.078580           0.00000       0.00000       0.00000
 H   1.170830       12.47680       7.313750           0.00000       0.00000       0.00000
 C   11.43560       11.02610       15.55360           0.00000       0.00000       0.00000
 H   11.70860       12.05430       15.74110           0.00000       0.00000       0.00000
 H   10.42700       10.97430       15.14720           0.00000       0.00000       0.00000
 H   12.19160       10.61770       14.85150           0.00000       0.00000       0.00000
 H   11.52380       10.48960       16.51110           0.00000       0.00000       0.00000
 C   5.965820       12.82280       5.934940           0.00000       0.00000       0.00000
 H   5.555370       11.85620       6.216950           0.00000       0.00000       0.00000
 H   6.479700       13.28240       6.777540           0.00000       0.00000       0.00000
 H   5.228410       13.51070       5.548840           0.00000       0.00000       0.00000
 H   6.697640       12.63890       5.162670           0.00000       0.00000       0.00000
 C   3.228960       15.67050       7.695380           0.00000       0.00000       0.00000
 H   3.024000       15.08560       8.599330           0.00000       0.00000       0.00000
 H   3.500270       16.70890       7.957250           0.00000       0.00000       0.00000
 H   2.332090       15.68720       7.046570           0.00000       0.00000       0.00000
 H   4.051190       15.24220       7.104030           0.00000       0.00000       0.00000
 C   8.697310       8.523040       16.99410           0.00000       0.00000       0.00000
 H   9.142930       8.325630       17.96670           0.00000       0.00000       0.00000
 H   7.687110       8.071660       16.88840           0.00000       0.00000       0.00000
 H   8.652170       9.593010       16.83680           0.00000       0.00000       0.00000
 H   9.350080       8.112060       16.24180           0.00000       0.00000       0.00000
 C   4.576880       13.62390       13.93100           0.00000       0.00000       0.00000
 H   5.537350       14.03790       14.22200           0.00000       0.00000       0.00000
 H   3.855940       14.42960       13.75860           0.00000       0.00000       0.00000
 H   4.699110       13.07020       12.99380           0.00000       0.00000       0.00000
 H   4.251560       12.90290       14.69750           0.00000       0.00000       0.00000
 C   3.573090       14.16460       3.117720           0.00000       0.00000       0.00000
 H   4.582710       13.80850       2.799890           0.00000       0.00000       0.00000
 H   2.972040       13.36540       3.524910           0.00000       0.00000       0.00000
 H   3.703090       14.91380       3.882850           0.00000       0.00000       0.00000
 H   3.078600       14.64550       2.275950           0.00000       0.00000       0.00000
 C   12.63840      0.7372460       14.65670           0.00000       0.00000       0.00000
 H   13.45880       1.077930       13.99480           0.00000       0.00000       0.00000
 H   13.06180      7.6216497E-02   15.39750           0.00000       0.00000       0.00000
 H   12.15450       1.542010       15.19950           0.00000       0.00000       0.00000
 H   11.89360      0.2454730       14.02380           0.00000       0.00000       0.00000
 C   10.66060       1.435250       6.783040           0.00000       0.00000       0.00000
 H   11.37380      0.6704970       7.129570           0.00000       0.00000       0.00000
 H   10.42700       1.262990       5.725750           0.00000       0.00000       0.00000
 H   11.13910       2.405920       6.870670           0.00000       0.00000       0.00000
 H   9.739540       1.427870       7.366320           0.00000       0.00000       0.00000
 C   9.528500       7.296210       13.46150           0.00000       0.00000       0.00000
 H   10.50630       7.567780       13.86070           0.00000       0.00000       0.00000
 H   9.539950       6.721950       12.54380           0.00000       0.00000       0.00000
 H   8.972350       8.227360       13.29440           0.00000       0.00000       0.00000
 H   8.977060       6.729120       14.23040           0.00000       0.00000       0.00000
 C   10.68450       8.317640       10.06140           0.00000       0.00000       0.00000
 H   11.42510       7.719760       10.55810           0.00000       0.00000       0.00000
 H   9.851800       8.500690       10.72530           0.00000       0.00000       0.00000
 H   11.09400       9.269350       9.737570           0.00000       0.00000       0.00000
 H   10.28340       7.758030       9.193000           0.00000       0.00000       0.00000
 C   3.594530       6.060200       10.98120           0.00000       0.00000       0.00000
 H   4.020700       6.010080       9.975750           0.00000       0.00000       0.00000
 H   3.676380       7.101920       11.36610           0.00000       0.00000       0.00000
 H   4.104550       5.381610       11.66890           0.00000       0.00000       0.00000
 H   2.552120       5.753780       10.90130           0.00000       0.00000       0.00000
 C   10.08710       7.744220       2.083470           0.00000       0.00000       0.00000
 H   10.13990       8.424750       1.236250           0.00000       0.00000       0.00000
 H   9.815880       8.282690       2.976050           0.00000       0.00000       0.00000
 H   11.07950       7.245450       2.253870           0.00000       0.00000       0.00000
 H   9.311550       6.969790       1.902440           0.00000       0.00000       0.00000
 C   9.557540       3.212980       14.03440           0.00000       0.00000       0.00000
 H   10.41860       2.657430       13.63250           0.00000       0.00000       0.00000
 H   8.875150       2.529780       14.53680           0.00000       0.00000       0.00000
 H   9.903250       3.952160       14.76550           0.00000       0.00000       0.00000
 H   9.028550       3.730270       13.25660           0.00000       0.00000       0.00000
 C   6.239550       9.166420       11.53880           0.00000       0.00000       0.00000
 H   5.699710       9.108890       12.49040           0.00000       0.00000       0.00000
 H   6.305690       8.178890       11.06910           0.00000       0.00000       0.00000
 H   5.729460       9.840510       10.84790           0.00000       0.00000       0.00000
 H   7.251350       9.571900       11.69880           0.00000       0.00000       0.00000
 C   13.83430       6.994650       3.384190           0.00000       0.00000       0.00000
 H   13.17030       6.156780       3.590550           0.00000       0.00000       0.00000
 H   13.59030       7.390560       2.413620           0.00000       0.00000       0.00000
 H   13.67260       7.752320       4.170500           0.00000       0.00000       0.00000
 H   14.85120       6.682120       3.355350           0.00000       0.00000       0.00000
 C   12.21860       11.70470       7.804080           0.00000       0.00000       0.00000
 H   11.91660       12.66550       7.409730           0.00000       0.00000       0.00000
 H   13.29350       11.65070       7.737850           0.00000       0.00000       0.00000
 H   11.94030       11.61890       8.831830           0.00000       0.00000       0.00000
 H   11.85010       10.84350       7.233810           0.00000       0.00000       0.00000
 C   14.64010       13.75250       10.16310           0.00000       0.00000       0.00000
 H   14.43970       14.58850       10.85390           0.00000       0.00000       0.00000
 H   15.28870       14.12090       9.368750           0.00000       0.00000       0.00000
 H   15.15330       12.93380       10.70090           0.00000       0.00000       0.00000
 H   13.72910       13.37260       9.741880           0.00000       0.00000       0.00000
 C   12.44720       1.045000       10.28030           0.00000       0.00000       0.00000
 H   12.48470       1.030830       11.37300           0.00000       0.00000       0.00000
 H   11.42010       1.003790       9.907320           0.00000       0.00000       0.00000
 H   12.84630       1.971960       9.876720           0.00000       0.00000       0.00000
 H   12.98000      0.1578020       9.899900           0.00000       0.00000       0.00000
 C   10.03020       13.55440       5.609200           0.00000       0.00000       0.00000
 H   10.82380       13.48150       4.879540           0.00000       0.00000       0.00000
 H   9.780360       12.58550       6.074140           0.00000       0.00000       0.00000
 H   9.127590       13.89840       5.090540           0.00000       0.00000       0.00000
 H   10.27690       14.26270       6.397900           0.00000       0.00000       0.00000
 C   12.64020       6.788890       7.204270           0.00000       0.00000       0.00000
 H   13.54610       6.354070       6.714400           0.00000       0.00000       0.00000
 H   12.64320       7.856140       6.960220           0.00000       0.00000       0.00000
 H   11.76990       6.265360       6.815060           0.00000       0.00000       0.00000
 H   12.64630       6.653460       8.293880           0.00000       0.00000       0.00000
 C   3.888420       5.567480       6.857220           0.00000       0.00000       0.00000
 H   3.587920       5.033300       5.973980           0.00000       0.00000       0.00000
 H   3.425380       6.538150       6.855450           0.00000       0.00000       0.00000
 H   3.590560       5.043960       7.767320           0.00000       0.00000       0.00000
 H   4.952640       5.699370       6.879420           0.00000       0.00000       0.00000
 C   11.21780       4.568020       10.94180           0.00000       0.00000       0.00000
 H   11.22880       3.559980       11.28220           0.00000       0.00000       0.00000
 H   10.18660       4.784170       10.72190           0.00000       0.00000       0.00000
 H   11.58710       5.203540       11.74380           0.00000       0.00000       0.00000
 H   11.74100       4.695670       10.00290           0.00000       0.00000       0.00000
 C   2.412450       9.394670       8.856610           0.00000       0.00000       0.00000
 H   1.980020       8.391310       8.696370           0.00000       0.00000       0.00000
 H   2.876840       9.322940       9.819750           0.00000       0.00000       0.00000
 H   1.660160       10.19840       8.850410           0.00000       0.00000       0.00000
 H   3.122170       9.630310       8.067520           0.00000       0.00000       0.00000
 C   9.247110       13.92160       1.833950           0.00000       0.00000       0.00000
 H   9.095270       14.19710      0.8105710           0.00000       0.00000       0.00000
 H   8.409620       13.34880       2.198610           0.00000       0.00000       0.00000
 H   10.11150       13.26180       1.876090           0.00000       0.00000       0.00000
 H   9.505170       14.81490       2.407960           0.00000       0.00000       0.00000
 C   8.107650       11.37870       9.222930           0.00000       0.00000       0.00000
 H   7.156880       11.49160       8.728790           0.00000       0.00000       0.00000
 H   8.329680       10.31820       9.320000           0.00000       0.00000       0.00000
 H   7.969510       11.81770       10.20490           0.00000       0.00000       0.00000
 H   8.859050       11.87400       8.620910           0.00000       0.00000       0.00000
 C   12.72250       6.908330       16.92230           0.00000       0.00000       0.00000
 H   13.00060       5.873250       16.92980           0.00000       0.00000       0.00000
 H   12.66060       7.237950       17.96230           0.00000       0.00000       0.00000
 H   13.49670       7.473450       16.40370           0.00000       0.00000       0.00000
 H   11.76500       7.085020       16.43590           0.00000       0.00000       0.00000
 C   13.91350       14.62500       6.154780           0.00000       0.00000       0.00000
 H   13.45580       14.12460       5.315130           0.00000       0.00000       0.00000
 H   13.79270       14.02430       7.055640           0.00000       0.00000       0.00000
 H   14.96060       14.85840       5.944110           0.00000       0.00000       0.00000
 H   13.33760       15.54420       6.285460           0.00000       0.00000       0.00000
 C   6.644440       2.536310       5.641330           0.00000       0.00000       0.00000
 H   6.746710       2.955420       6.637320           0.00000       0.00000       0.00000
 H   7.159460       1.548630       5.563000           0.00000       0.00000       0.00000
 H   5.585700       2.420370       5.406710           0.00000       0.00000       0.00000
 H   7.076300       3.265270       4.948820           0.00000       0.00000       0.00000
 C   4.132140       8.996580       4.994910           0.00000       0.00000       0.00000
 H   4.220830       8.038850       4.491480           0.00000       0.00000       0.00000
 H   5.092490       9.315270       5.352400           0.00000       0.00000       0.00000
 H   3.433690       8.947650       5.826400           0.00000       0.00000       0.00000
 H   3.812820       9.702800       4.254890           0.00000       0.00000       0.00000
 C   14.88390       11.82630       13.22520           0.00000       0.00000       0.00000
 H   15.72360       11.28720       12.79820           0.00000       0.00000       0.00000
 H   14.00520       11.62490       12.58490           0.00000       0.00000       0.00000
 H   14.66200       11.46530       14.21750           0.00000       0.00000       0.00000
 H   15.05260       12.90220       13.28380           0.00000       0.00000       0.00000
 C   7.451490       6.364170       4.322620           0.00000       0.00000       0.00000
 H   7.653970       5.938700       3.360360           0.00000       0.00000       0.00000
 H   6.463950       6.053660       4.681290           0.00000       0.00000       0.00000
 H   7.459770       7.443070       4.232050           0.00000       0.00000       0.00000
 H   8.199420       5.999500       5.024680           0.00000       0.00000       0.00000
 C   12.06110       10.58000       4.032910           0.00000       0.00000       0.00000
 H   12.64180       11.17990       4.761940           0.00000       0.00000       0.00000
 H   11.96120       9.594950       4.456790           0.00000       0.00000       0.00000
 H   11.06740       11.02440       3.929620           0.00000       0.00000       0.00000
 H   12.54380       10.51830       3.072090           0.00000       0.00000       0.00000
 C   9.535610       8.858350       6.210120           0.00000       0.00000       0.00000
 H   9.680220       9.054280       7.261740           0.00000       0.00000       0.00000
 H   8.510170       8.539560       6.046250           0.00000       0.00000       0.00000
 H   9.751660       9.749380       5.667570           0.00000       0.00000       0.00000
 H   10.22780       8.073810       5.867670           0.00000       0.00000       0.00000
 C   10.64880       11.72030       11.86890           0.00000       0.00000       0.00000
 H   10.34240       12.06160       10.88880           0.00000       0.00000       0.00000
 H   10.56400       10.63560       11.94280           0.00000       0.00000       0.00000
 H   10.02580       12.19570       12.63180           0.00000       0.00000       0.00000
 H   11.70230       12.01160       12.01130           0.00000       0.00000       0.00000
