#total energy=-4.6396828 eV

CRYSTAL
PRIMVEC
        75.9000000            0.00000000           0.00000000
        0.00000000            75.9000000           0.00000000
        0.00000000            0.00000000           75.9000000
PRIMCOORD
320 1
 C   4.197250       9.776360       7.752730           0.00000       0.00000       0.00000
 H   3.310940       9.203030       7.537440           0.00000       0.00000       0.00000
 H   3.880600       10.75900       8.133500           0.00000       0.00000       0.00000
 H   4.768330       9.902600       6.840520           0.00000       0.00000       0.00000
 H   4.788860       9.268670       8.510000           0.00000       0.00000       0.00000
 C   5.017050      0.1139350       7.676790           0.00000       0.00000       0.00000
 H   5.858430      0.7690090       7.902950           0.00000       0.00000       0.00000
 H   4.197460      0.3355900       8.346740           0.00000       0.00000       0.00000
 H   5.341300     -0.9181110       7.808630           0.00000       0.00000       0.00000
 H   4.673690      0.2685330       6.643540           0.00000       0.00000       0.00000
 C   12.78200       13.34150       4.631980           0.00000       0.00000       0.00000
 H   12.84940       14.42290       4.820420           0.00000       0.00000       0.00000
 H   13.73500       12.95700       4.261940           0.00000       0.00000       0.00000
 H   12.57670       12.87030       5.583790           0.00000       0.00000       0.00000
 H   11.99410       13.12060       3.895440           0.00000       0.00000       0.00000
 C   10.51750       3.497620       10.56410           0.00000       0.00000       0.00000
 H   9.802560       3.042680       9.873660           0.00000       0.00000       0.00000
 H   10.90540       4.421620       10.13500           0.00000       0.00000       0.00000
 H   10.04110       3.760080       11.50940           0.00000       0.00000       0.00000
 H   11.33710       2.814860       10.74890           0.00000       0.00000       0.00000
 C  0.5657730       7.327240       7.283540           0.00000       0.00000       0.00000
 H   1.079670       7.402500       6.337880           0.00000       0.00000       0.00000
 H  0.7298240       6.332540       7.692170           0.00000       0.00000       0.00000
 H  0.9244920       8.089700       7.970820           0.00000       0.00000       0.00000
 H -0.5059790       7.421560       7.117230           0.00000       0.00000       0.00000
 C   6.686380       3.796410       7.776190           0.00000       0.00000       0.00000
 H   7.146890       3.557120       6.807280           0.00000       0.00000       0.00000
 H   6.750970       4.872570       7.958250           0.00000       0.00000       0.00000
 H   5.643620       3.475270       7.775860           0.00000       0.00000       0.00000
 H   7.190550       3.287790       8.582050           0.00000       0.00000       0.00000
 C   7.951930       1.359340       12.29890           0.00000       0.00000       0.00000
 H   8.189960       1.403240       13.36530           0.00000       0.00000       0.00000
 H   7.566450       2.325550       11.99020           0.00000       0.00000       0.00000
 H   8.882370       1.138990       11.76900           0.00000       0.00000       0.00000
 H   7.198460      0.6020540       12.11700           0.00000       0.00000       0.00000
 C   14.56920       7.557550       10.58930           0.00000       0.00000       0.00000
 H   13.56200       7.243030       10.31590           0.00000       0.00000       0.00000
 H   14.62370       7.790020       11.65770           0.00000       0.00000       0.00000
 H   14.82800       8.437890       10.01540           0.00000       0.00000       0.00000
 H   15.27740       6.744680       10.38510           0.00000       0.00000       0.00000
 C   9.619450       10.55070       1.910140           0.00000       0.00000       0.00000
 H   10.36180       9.998240       1.343810           0.00000       0.00000       0.00000
 H   10.06260       11.46840       2.289830           0.00000       0.00000       0.00000
 H   8.772100       10.76400       1.256600           0.00000       0.00000       0.00000
 H   9.291090       9.946050       2.738870           0.00000       0.00000       0.00000
 C   5.776620       10.30300       14.51930           0.00000       0.00000       0.00000
 H   5.688380       11.33740       14.18030           0.00000       0.00000       0.00000
 H   6.181540       10.29930       15.53930           0.00000       0.00000       0.00000
 H   4.774670       9.833780       14.53670           0.00000       0.00000       0.00000
 H   6.449310       9.753270       13.85700           0.00000       0.00000       0.00000
 C   4.013990       6.964260       13.26820           0.00000       0.00000       0.00000
 H   3.794060       6.991480       14.33130           0.00000       0.00000       0.00000
 H   3.070280       7.086660       12.75140           0.00000       0.00000       0.00000
 H   4.727970       7.740380       13.00990           0.00000       0.00000       0.00000
 H   4.437050       5.985910       12.98870           0.00000       0.00000       0.00000
 C   14.11020       11.10320       7.823280           0.00000       0.00000       0.00000
 H   13.05970       10.86330       7.629320           0.00000       0.00000       0.00000
 H   14.46000       11.92730       7.206950           0.00000       0.00000       0.00000
 H   14.67500       10.20870       7.587600           0.00000       0.00000       0.00000
 H   14.25540       11.31740       8.885980           0.00000       0.00000       0.00000
 C   9.231640       14.76530       5.521080           0.00000       0.00000       0.00000
 H   9.912090       15.44410       6.070150           0.00000       0.00000       0.00000
 H   8.395430       14.53780       6.171560           0.00000       0.00000       0.00000
 H   9.762960       13.85860       5.239800           0.00000       0.00000       0.00000
 H   8.888420       15.27150       4.595560           0.00000       0.00000       0.00000
 C   5.417430       15.71070       5.871140           0.00000       0.00000       0.00000
 H   5.565950       14.66090       6.120390           0.00000       0.00000       0.00000
 H   4.355660       15.95840       5.982660           0.00000       0.00000       0.00000
 H   5.715230       15.85810       4.835610           0.00000       0.00000       0.00000
 H   6.002130       16.35110       6.515330           0.00000       0.00000       0.00000
 C   15.62330       7.311470       6.764420           0.00000       0.00000       0.00000
 H   14.74500       7.451010       7.398330           0.00000       0.00000       0.00000
 H   15.85000       6.250820       6.670970           0.00000       0.00000       0.00000
 H   15.42710       7.711630       5.770750           0.00000       0.00000       0.00000
 H   16.45420       7.801860       7.274120           0.00000       0.00000       0.00000
 C   7.813640       7.783810       7.628200           0.00000       0.00000       0.00000
 H   8.380520       7.384150       6.818410           0.00000       0.00000       0.00000
 H   7.703330       8.847390       7.486760           0.00000       0.00000       0.00000
 H   6.832200       7.329350       7.613880           0.00000       0.00000       0.00000
 H   8.358080       7.554810       8.534090           0.00000       0.00000       0.00000
 C  0.7507080       11.27910       8.358920           0.00000       0.00000       0.00000
 H   1.516780       10.75480       8.931990           0.00000       0.00000       0.00000
 H  0.1881740       11.90170       9.037710           0.00000       0.00000       0.00000
 H  3.8399201E-02   10.59660       7.879150           0.00000       0.00000       0.00000
 H   1.196690       11.92830       7.607780           0.00000       0.00000       0.00000
 C   4.472730       10.74200       1.112960           0.00000       0.00000       0.00000
 H   3.710080       11.47000       1.332290           0.00000       0.00000       0.00000
 H   4.878030       10.33910       2.042080           0.00000       0.00000       0.00000
 H   4.032490       9.925900      0.5382660           0.00000       0.00000       0.00000
 H   5.279390       11.20020      0.5431740           0.00000       0.00000       0.00000
 C   8.171710       1.795520       4.608640           0.00000       0.00000       0.00000
 H   8.897830       2.467870       5.086620           0.00000       0.00000       0.00000
 H   7.262240       1.703140       5.208000           0.00000       0.00000       0.00000
 H   7.927800       2.114920       3.594440           0.00000       0.00000       0.00000
 H   8.645860      0.8161200       4.504670           0.00000       0.00000       0.00000
 C   10.41670       7.382980       10.95020           0.00000       0.00000       0.00000
 H   10.60570       6.673400       11.75220           0.00000       0.00000       0.00000
 H   11.12570       8.216760       11.00050           0.00000       0.00000       0.00000
 H   10.54820       6.847180       9.990980           0.00000       0.00000       0.00000
 H   9.386700       7.765720       11.01210           0.00000       0.00000       0.00000
 C   6.348610       3.454770       1.044750           0.00000       0.00000       0.00000
 H   7.076960       4.246370       1.313600           0.00000       0.00000       0.00000
 H   6.850320       2.505620      0.8260920           0.00000       0.00000       0.00000
 H   5.724020       3.786830      0.2192710           0.00000       0.00000       0.00000
 H   5.734510       3.297870       1.939700           0.00000       0.00000       0.00000
 C   10.71910       14.25700       12.14800           0.00000       0.00000       0.00000
 H   11.60480       14.58980       11.61710           0.00000       0.00000       0.00000
 H   10.00660       15.07390       12.16940           0.00000       0.00000       0.00000
 H   10.97600       14.01850       13.17590           0.00000       0.00000       0.00000
 H   10.29250       13.38390       11.62820           0.00000       0.00000       0.00000
 C   13.67230       4.211870       8.597430           0.00000       0.00000       0.00000
 H   13.84630       4.741960       7.653410           0.00000       0.00000       0.00000
 H   13.20520       4.890600       9.323500           0.00000       0.00000       0.00000
 H   14.62750       3.853860       8.986880           0.00000       0.00000       0.00000
 H   13.00750       3.364780       8.420500           0.00000       0.00000       0.00000
 C   7.246170       12.82500       11.74290           0.00000       0.00000       0.00000
 H   7.728200       13.59580       12.31740           0.00000       0.00000       0.00000
 H   7.467330       11.85690       12.19130           0.00000       0.00000       0.00000
 H   6.178320       13.00660       11.76460           0.00000       0.00000       0.00000
 H   7.591670       12.86510       10.70840           0.00000       0.00000       0.00000
 C   5.962510       3.831900       14.65030           0.00000       0.00000       0.00000
 H   4.967440       4.271010       14.75840           0.00000       0.00000       0.00000
 H   6.536530       4.385190       13.89510           0.00000       0.00000       0.00000
 H   5.880530       2.811830       14.31700           0.00000       0.00000       0.00000
 H   6.477800       3.883590       15.61530           0.00000       0.00000       0.00000
 C   3.994260       6.282120       5.924370           0.00000       0.00000       0.00000
 H   4.263190       6.333270       4.850070           0.00000       0.00000       0.00000
 H   3.912430       7.292620       6.330330           0.00000       0.00000       0.00000
 H   3.028940       5.775310       6.032740           0.00000       0.00000       0.00000
 H   4.777120       5.738210       6.443910           0.00000       0.00000       0.00000
 C   13.41850       4.427950       12.50290           0.00000       0.00000       0.00000
 H   13.57580       3.690690       11.71910           0.00000       0.00000       0.00000
 H   14.36340       4.920110       12.73620           0.00000       0.00000       0.00000
 H   13.07350       3.935320       13.40990           0.00000       0.00000       0.00000
 H   12.70830       5.177430       12.16840           0.00000       0.00000       0.00000
 C   13.73190       9.424550       3.871090           0.00000       0.00000       0.00000
 H   13.49400       8.380120       4.087040           0.00000       0.00000       0.00000
 H   14.05190       9.897850       4.806530           0.00000       0.00000       0.00000
 H   14.54280       9.484480       3.156310           0.00000       0.00000       0.00000
 H   12.86040       9.945480       3.453570           0.00000       0.00000       0.00000
 C   12.17890       7.319120       14.44130           0.00000       0.00000       0.00000
 H   12.59140       8.099380       15.06770           0.00000       0.00000       0.00000
 H   12.34780       7.577360       13.38850           0.00000       0.00000       0.00000
 H   11.10480       7.229060       14.57900           0.00000       0.00000       0.00000
 H   12.64570       6.347690       14.67650           0.00000       0.00000       0.00000
 C   6.749140       12.93810       3.259190           0.00000       0.00000       0.00000
 H   7.202110       13.63100       2.544740           0.00000       0.00000       0.00000
 H   7.279130       11.99470       3.189550           0.00000       0.00000       0.00000
 H   6.805730       13.31910       4.276180           0.00000       0.00000       0.00000
 H   5.708750       12.76660       3.007090           0.00000       0.00000       0.00000
 C   10.44600       3.860370       2.086360           0.00000       0.00000       0.00000
 H   11.30230       3.672220       1.422340           0.00000       0.00000       0.00000
 H   10.78590       4.171210       3.073270           0.00000       0.00000       0.00000
 H   9.859160       4.657300       1.645030           0.00000       0.00000       0.00000
 H   9.815640       2.971390       2.154070           0.00000       0.00000       0.00000
 C   9.995760       3.843310       14.49100           0.00000       0.00000       0.00000
 H   10.59540       2.984790       14.15450           0.00000       0.00000       0.00000
 H   10.18090       4.036030       15.55880           0.00000       0.00000       0.00000
 H   8.942560       3.642930       14.32160           0.00000       0.00000       0.00000
 H   10.27340       4.730220       13.88840           0.00000       0.00000       0.00000
 C   3.948240       6.398920       1.863810           0.00000       0.00000       0.00000
 H   2.949140       6.736650       2.123900           0.00000       0.00000       0.00000
 H   4.681190       7.159650       2.201490           0.00000       0.00000       0.00000
 H   4.045640       6.253470      0.7908610           0.00000       0.00000       0.00000
 H   4.171990       5.467530       2.378690           0.00000       0.00000       0.00000
 C   7.927820       7.206840       14.56430           0.00000       0.00000       0.00000
 H   8.084790       7.981460       15.33060           0.00000       0.00000       0.00000
 H   6.952680       7.338040       14.08590           0.00000       0.00000       0.00000
 H   8.722570       7.306750       13.81360           0.00000       0.00000       0.00000
 H   8.003060       6.229730       15.05800           0.00000       0.00000       0.00000
 C   10.25300       10.82880       5.718860           0.00000       0.00000       0.00000
 H   9.440040       11.32240       5.173680           0.00000       0.00000       0.00000
 H   10.62820       11.50740       6.494990           0.00000       0.00000       0.00000
 H   9.855640       9.936960       6.185040           0.00000       0.00000       0.00000
 H   11.06080       10.52770       5.052010           0.00000       0.00000       0.00000
 C  0.6772650       4.789590       4.281840           0.00000       0.00000       0.00000
 H  0.8872960       3.783340       3.941380           0.00000       0.00000       0.00000
 H -0.2886260       5.099500       3.899830           0.00000       0.00000       0.00000
 H  0.6286260       4.760040       5.369410           0.00000       0.00000       0.00000
 H   1.470200       5.461050       3.946860           0.00000       0.00000       0.00000
 C   10.29950       7.389280       4.249110           0.00000       0.00000       0.00000
 H   10.80950       7.061630       5.146540           0.00000       0.00000       0.00000
 H   9.316290       7.799690       4.483330           0.00000       0.00000       0.00000
 H   10.90450       8.156980       3.755720           0.00000       0.00000       0.00000
 H   10.18540       6.525870       3.615920           0.00000       0.00000       0.00000
 C   12.04090       7.089140      0.7352860           0.00000       0.00000       0.00000
 H   12.72670       7.610170       1.413280           0.00000       0.00000       0.00000
 H   12.34650       6.057880      0.5911540           0.00000       0.00000       0.00000
 H   11.99860       7.600390     -0.2243020           0.00000       0.00000       0.00000
 H   11.05290       7.078590       1.193590           0.00000       0.00000       0.00000
 C   7.952640       15.54370       9.078040           0.00000       0.00000       0.00000
 H   7.858700       15.67460       10.15190           0.00000       0.00000       0.00000
 H   8.406810       16.44010       8.629220           0.00000       0.00000       0.00000
 H   6.950120       15.38110       8.669450           0.00000       0.00000       0.00000
 H   8.576790       14.66390       8.883490           0.00000       0.00000       0.00000
 C   11.92780       8.090980       7.594440           0.00000       0.00000       0.00000
 H   10.84770       8.249690       7.538580           0.00000       0.00000       0.00000
 H   12.36600       8.475300       6.679680           0.00000       0.00000       0.00000
 H   12.35740       8.651610       8.426340           0.00000       0.00000       0.00000
 H   12.14640       7.030380       7.688640           0.00000       0.00000       0.00000
 C   3.237480       10.95590       11.64720           0.00000       0.00000       0.00000
 H   4.156500       11.41890       12.02540           0.00000       0.00000       0.00000
 H   2.618210       11.69950       11.16920           0.00000       0.00000       0.00000
 H   2.685540       10.47840       12.46010           0.00000       0.00000       0.00000
 H   3.491560       10.20090       10.91660           0.00000       0.00000       0.00000
 C   4.021030       13.71170       9.355320           0.00000       0.00000       0.00000
 H   4.508690       14.34490       8.628530           0.00000       0.00000       0.00000
 H   3.080420       13.37050       8.925110           0.00000       0.00000       0.00000
 H   3.805630       14.27270       10.26000           0.00000       0.00000       0.00000
 H   4.647330       12.86140       9.593550           0.00000       0.00000       0.00000
 C   7.266350       5.275050       4.251010           0.00000       0.00000       0.00000
 H   6.836370       5.948920       3.505550           0.00000       0.00000       0.00000
 H   8.198180       4.843020       3.880130           0.00000       0.00000       0.00000
 H   7.398780       5.817800       5.173530           0.00000       0.00000       0.00000
 H   6.556120       4.481920       4.422830           0.00000       0.00000       0.00000
 C   6.913290       12.11120       7.439840           0.00000       0.00000       0.00000
 H   6.375890       11.97710       6.523200           0.00000       0.00000       0.00000
 H   6.641330       11.33450       8.147360           0.00000       0.00000       0.00000
 H   7.993160       12.09800       7.233100           0.00000       0.00000       0.00000
 H   6.678620       13.07300       7.900700           0.00000       0.00000       0.00000
 C   11.83940       1.688680       5.286010           0.00000       0.00000       0.00000
 H   11.50570       2.728790       5.185550           0.00000       0.00000       0.00000
 H   11.63360       1.113200       4.371980           0.00000       0.00000       0.00000
 H   12.90210       1.725490       5.513880           0.00000       0.00000       0.00000
 H   11.31710       1.221570       6.129970           0.00000       0.00000       0.00000
 C   9.972120       11.12900       9.496230           0.00000       0.00000       0.00000
 H   10.04060       10.85340       10.54080           0.00000       0.00000       0.00000
 H   10.92970       10.98870       9.022180           0.00000       0.00000       0.00000
 H   9.225810       10.50350       9.002470           0.00000       0.00000       0.00000
 H   9.670670       12.18120       9.413010           0.00000       0.00000       0.00000
 C   10.05590       10.42060       13.70250           0.00000       0.00000       0.00000
 H   10.26570       9.564180       13.05300           0.00000       0.00000       0.00000
 H   10.23040       11.33950       13.14580           0.00000       0.00000       0.00000
 H   9.022700       10.37620       14.05140           0.00000       0.00000       0.00000
 H   10.72640       10.37370       14.56100           0.00000       0.00000       0.00000
 C   7.907230       7.155510      0.6803780           0.00000       0.00000       0.00000
 H   8.246150       6.210250      0.2690490           0.00000       0.00000       0.00000
 H   8.271820       7.281480       1.686850           0.00000       0.00000       0.00000
 H   8.284170       7.986380      7.4059702E-02       0.00000       0.00000       0.00000
 H   6.807410       7.169070      0.6876520           0.00000       0.00000       0.00000
 C   11.92390       14.16330       8.372080           0.00000       0.00000       0.00000
 H   12.17650       13.42010       9.143780           0.00000       0.00000       0.00000
 H   11.61130       15.09330       8.846320           0.00000       0.00000       0.00000
 H   11.10550       13.83210       7.752290           0.00000       0.00000       0.00000
 H   12.81940       14.36050       7.746010           0.00000       0.00000       0.00000
 C  0.4648940       8.534030       11.16300           0.00000       0.00000       0.00000
 H   1.464720       8.302120       10.80820           0.00000       0.00000       0.00000
 H  0.3624430       9.589790       11.35620           0.00000       0.00000       0.00000
 H -0.2613370       8.250010       10.39980           0.00000       0.00000       0.00000
 H  0.2368440       7.964780       12.05960           0.00000       0.00000       0.00000
 C   8.877810      0.4993180       8.372220           0.00000       0.00000       0.00000
 H   8.910480       1.246430       7.570600           0.00000       0.00000       0.00000
 H   9.878480      0.2436960       8.705330           0.00000       0.00000       0.00000
 H   8.326990      0.8926360       9.215140           0.00000       0.00000       0.00000
 H   8.394400     -0.4064890       8.016040           0.00000       0.00000       0.00000
 C   6.574900       9.126850       4.393930           0.00000       0.00000       0.00000
 H   6.891970       8.825520       3.407500           0.00000       0.00000       0.00000
 H   6.393710       8.265670       5.037550           0.00000       0.00000       0.00000
 H   7.350110       9.731920       4.865540           0.00000       0.00000       0.00000
 H   5.646730       9.705780       4.320130           0.00000       0.00000       0.00000
 C   4.622870       2.522390       10.84600           0.00000       0.00000       0.00000
 H   5.118250       2.887060       11.73770           0.00000       0.00000       0.00000
 H   3.678850       2.035720       11.11220           0.00000       0.00000       0.00000
 H   5.253590       1.750300       10.39400           0.00000       0.00000       0.00000
 H   4.430730       3.340310       10.13050           0.00000       0.00000       0.00000
 C   3.812280       6.706900       9.698920           0.00000       0.00000       0.00000
 H   2.907170       6.829260       9.132110           0.00000       0.00000       0.00000
 H   3.987940       7.610760       10.30990           0.00000       0.00000       0.00000
 H   3.710040       5.824930       10.35770           0.00000       0.00000       0.00000
 H   4.664920       6.549680       9.034360           0.00000       0.00000       0.00000
 C   2.362790       3.431260       7.910540           0.00000       0.00000       0.00000
 H   3.035580       2.625050       8.160700           0.00000       0.00000       0.00000
 H   2.276240       3.489410       6.823970           0.00000       0.00000       0.00000
 H   2.769130       4.369590       8.316610           0.00000       0.00000       0.00000
 H   1.371300       3.261300       8.339740           0.00000       0.00000       0.00000
 C   2.290020       9.098270       4.050180           0.00000       0.00000       0.00000
 H   1.947610       9.593320       3.141000           0.00000       0.00000       0.00000
 H   1.754840       8.166770       4.171560           0.00000       0.00000       0.00000
 H   3.361430       8.920480       3.981560           0.00000       0.00000       0.00000
 H   2.038210       9.714760       4.929440           0.00000       0.00000       0.00000
 C   10.19740       4.774220       6.955580           0.00000       0.00000       0.00000
 H   9.689950       4.761060       5.990030           0.00000       0.00000       0.00000
 H   9.779170       5.505370       7.629370           0.00000       0.00000       0.00000
 H   10.08760       3.785160       7.381500           0.00000       0.00000       0.00000
 H   11.26030       4.970230       6.805330           0.00000       0.00000       0.00000
 C   6.667760       9.277050       10.81330           0.00000       0.00000       0.00000
 H   5.766260       9.670340       11.26160           0.00000       0.00000       0.00000
 H   6.399140       8.467290       10.17120           0.00000       0.00000       0.00000
 H   7.142900       10.05900       10.21480           0.00000       0.00000       0.00000
 H   7.339620       8.944370       11.59530           0.00000       0.00000       0.00000
 C   13.11190       10.99340       11.62750           0.00000       0.00000       0.00000
 H   13.24260       10.37730       12.52480           0.00000       0.00000       0.00000
 H   13.99180       11.63580       11.57690           0.00000       0.00000       0.00000
 H   12.23520       11.61310       11.73750           0.00000       0.00000       0.00000
 H   13.04870       10.37730       10.72610           0.00000       0.00000       0.00000
 C   13.63710       5.431480       4.305030           0.00000       0.00000       0.00000
 H   13.56460       4.371710       4.559900           0.00000       0.00000       0.00000
 H   14.65920       5.673400       4.014630           0.00000       0.00000       0.00000
 H   12.97440       5.623100       3.443430           0.00000       0.00000       0.00000
 H   13.31540       6.042820       5.143370           0.00000       0.00000       0.00000
 C   7.029520       5.575620       11.07110           0.00000       0.00000       0.00000
 H   7.637690       4.923800       11.70000           0.00000       0.00000       0.00000
 H   7.634470       5.799670       10.17520           0.00000       0.00000       0.00000
 H   6.837940       6.465030       11.64710           0.00000       0.00000       0.00000
 H   6.097250       5.082950       10.79970           0.00000       0.00000       0.00000
 C   1.143990       4.587940       11.53070           0.00000       0.00000       0.00000
 H   1.556740       3.738250       10.99520           0.00000       0.00000       0.00000
 H   1.711550       4.728460       12.45420           0.00000       0.00000       0.00000
 H   1.194110       5.501560       10.93420           0.00000       0.00000       0.00000
 H  0.1117860       4.383250       11.79950           0.00000       0.00000       0.00000
 C   3.503550       12.54370       5.081650           0.00000       0.00000       0.00000
 H   2.408780       12.41430       5.198110           0.00000       0.00000       0.00000
 H   3.743610       13.44290       4.512830           0.00000       0.00000       0.00000
 H   3.920810       12.60590       6.095290           0.00000       0.00000       0.00000
 H   3.930610       11.66960       4.578160           0.00000       0.00000       0.00000
 C   4.305860       2.557820       4.652820           0.00000       0.00000       0.00000
 H   4.190660       3.493310       4.114360           0.00000       0.00000       0.00000
 H   3.318450       2.125930       4.820960           0.00000       0.00000       0.00000
 H   4.794920       2.767710       5.621850           0.00000       0.00000       0.00000
 H   4.913110       1.870770       4.095040           0.00000       0.00000       0.00000
