#total energy=-3.74870044 eV

CRYSTAL
PRIMVEC
        75.9000000            0.00000000           0.00000000
        0.00000000            75.9000000           0.00000000
        0.00000000            0.00000000           75.9000000
PRIMCOORD
320 1
 C  -1.960020       13.94190       8.775930           0.00000       0.00000       0.00000
 H  -2.125680       13.84640       9.849820           0.00000       0.00000       0.00000
 H  -1.271460       14.76220       8.588030           0.00000       0.00000       0.00000
 H  -2.887260       14.18630       8.247710           0.00000       0.00000       0.00000
 H  -1.557220       13.02810       8.366780           0.00000       0.00000       0.00000
 C   5.618740       7.407260       6.600930           0.00000       0.00000       0.00000
 H   6.295700       8.269410       6.691950           0.00000       0.00000       0.00000
 H   4.734500       7.712780       6.000290           0.00000       0.00000       0.00000
 H   5.230360       7.072550       7.577630           0.00000       0.00000       0.00000
 H   6.121990       6.568390       6.107180           0.00000       0.00000       0.00000
 C   2.850660       7.380140       22.66630           0.00000       0.00000       0.00000
 H   3.568930       8.197950       22.81110           0.00000       0.00000       0.00000
 H   1.893320       7.598010       23.17050           0.00000       0.00000       0.00000
 H   2.736460       7.259630       21.59670           0.00000       0.00000       0.00000
 H   3.285050       6.449820       23.06350           0.00000       0.00000       0.00000
 C   5.804780       15.58920       8.145870           0.00000       0.00000       0.00000
 H   6.649690       15.24410       8.728150           0.00000       0.00000       0.00000
 H   5.246410       16.23730       8.823710           0.00000       0.00000       0.00000
 H   6.097230       16.09540       7.228050           0.00000       0.00000       0.00000
 H   5.164310       14.71310       7.918020           0.00000       0.00000       0.00000
 C   6.583020       11.71020       21.06170           0.00000       0.00000       0.00000
 H   6.848600       12.13350       20.07520           0.00000       0.00000       0.00000
 H   5.494280       11.46100       21.07390           0.00000       0.00000       0.00000
 H   7.159510       10.81040       21.23140           0.00000       0.00000       0.00000
 H   6.763730       12.44260       21.83560           0.00000       0.00000       0.00000
 C  -2.673820       7.595170       13.64970           0.00000       0.00000       0.00000
 H  -2.977900       7.923090       12.67130           0.00000       0.00000       0.00000
 H  -2.687650       8.410670       14.37170           0.00000       0.00000       0.00000
 H  -3.364370       6.867740       14.03300           0.00000       0.00000       0.00000
 H  -1.694150       7.183700       13.60220           0.00000       0.00000       0.00000
 C   2.477660       4.148170       15.81920           0.00000       0.00000       0.00000
 H   2.869200       3.591700       14.97710           0.00000       0.00000       0.00000
 H   3.242360       4.890530       16.10290           0.00000       0.00000       0.00000
 H   1.535650       4.651260       15.58580           0.00000       0.00000       0.00000
 H   2.334040       3.486850       16.69080           0.00000       0.00000       0.00000
 C   7.728240       16.49040       19.28130           0.00000       0.00000       0.00000
 H   7.742140       15.99810       20.25300           0.00000       0.00000       0.00000
 H   8.618810       17.10500       19.16010           0.00000       0.00000       0.00000
 H   6.820450       17.08750       19.19120           0.00000       0.00000       0.00000
 H   7.743120       15.78530       18.46940           0.00000       0.00000       0.00000
 C   6.252780       3.887580       14.92380           0.00000       0.00000       0.00000
 H   5.947790       4.768420       14.35460           0.00000       0.00000       0.00000
 H   6.425960       3.052660       14.24070           0.00000       0.00000       0.00000
 H   7.171710       4.065800       15.47300           0.00000       0.00000       0.00000
 H   5.504490       3.665120       15.65580           0.00000       0.00000       0.00000
 C   4.097650       16.12240       3.778180           0.00000       0.00000       0.00000
 H   3.839890       15.77580       4.792610           0.00000       0.00000       0.00000
 H   4.781740       16.95240       3.884990           0.00000       0.00000       0.00000
 H   4.601550       15.32380       3.225180           0.00000       0.00000       0.00000
 H   3.176390       16.44900       3.259720           0.00000       0.00000       0.00000
 C   1.217660       16.47530       15.55900           0.00000       0.00000       0.00000
 H   1.544390       16.61440       14.53560           0.00000       0.00000       0.00000
 H   1.612060       17.27130       16.18290           0.00000       0.00000       0.00000
 H  0.1403950       16.50550       15.56490           0.00000       0.00000       0.00000
 H   1.577250       15.54810       15.97770           0.00000       0.00000       0.00000
 C   4.988400       10.43320       13.67390           0.00000       0.00000       0.00000
 H   6.048290       10.26060       13.57050           0.00000       0.00000       0.00000
 H   4.568230       10.69640       12.71500           0.00000       0.00000       0.00000
 H   4.830710       11.25130       14.37110           0.00000       0.00000       0.00000
 H   4.515980       9.519290       14.01750           0.00000       0.00000       0.00000
 C   4.150800       14.92750       20.44410           0.00000       0.00000       0.00000
 H   3.689730       15.87260       20.24640           0.00000       0.00000       0.00000
 H   3.873550       14.55660       21.44380           0.00000       0.00000       0.00000
 H   5.234480       15.05630       20.35770           0.00000       0.00000       0.00000
 H   3.827610       14.24640       19.64850           0.00000       0.00000       0.00000
 C   10.04330       10.90450       20.62320           0.00000       0.00000       0.00000
 H   10.13030       10.44990       19.65230           0.00000       0.00000       0.00000
 H   9.766390       10.10560       21.33790           0.00000       0.00000       0.00000
 H   9.313530       11.72580       20.59450           0.00000       0.00000       0.00000
 H   11.00580       11.33180       20.91860           0.00000       0.00000       0.00000
 C   7.723710       16.61660       11.17100           0.00000       0.00000       0.00000
 H   7.984120       17.23220       10.29970           0.00000       0.00000       0.00000
 H   8.528840       16.71250       11.90740           0.00000       0.00000       0.00000
 H   6.772850       16.92950       11.57040           0.00000       0.00000       0.00000
 H   7.627190       15.55160       10.87370           0.00000       0.00000       0.00000
 C   2.568850       6.004950       9.095040           0.00000       0.00000       0.00000
 H   2.635800       6.869610       9.764380           0.00000       0.00000       0.00000
 H   2.283730       5.106630       9.668850           0.00000       0.00000       0.00000
 H   1.836240       6.234380       8.323020           0.00000       0.00000       0.00000
 H   3.523630       5.795820       8.611810           0.00000       0.00000       0.00000
 C   5.491950       4.507030       11.32710           0.00000       0.00000       0.00000
 H   6.335360       5.097150       11.70060           0.00000       0.00000       0.00000
 H   4.671290       5.190150       11.14720           0.00000       0.00000       0.00000
 H   5.157290       3.744030       12.05110           0.00000       0.00000       0.00000
 H   5.778880       4.037580       10.40750           0.00000       0.00000       0.00000
 C   5.501550       12.16070       17.10550           0.00000       0.00000       0.00000
 H   6.065280       11.30840       16.69960           0.00000       0.00000       0.00000
 H   4.571900       12.29020       16.57320           0.00000       0.00000       0.00000
 H   5.311860       11.99490       18.15210           0.00000       0.00000       0.00000
 H   6.090030       13.07240       16.98950           0.00000       0.00000       0.00000
 C   4.638520       4.401480       19.05810           0.00000       0.00000       0.00000
 H   5.186010       4.170360       19.99820           0.00000       0.00000       0.00000
 H   4.035810       3.505550       18.75330           0.00000       0.00000       0.00000
 H   3.953920       5.193070       19.26930           0.00000       0.00000       0.00000
 H   5.315010       4.671310       18.23610           0.00000       0.00000       0.00000
 C   4.972050       7.787590       17.02140           0.00000       0.00000       0.00000
 H   4.042990       7.466670       16.51570           0.00000       0.00000       0.00000
 H   4.843490       7.726580       18.08940           0.00000       0.00000       0.00000
 H   5.798620       7.170160       16.75270           0.00000       0.00000       0.00000
 H   5.214580       8.799780       16.70790           0.00000       0.00000       0.00000
 C -0.3023760       9.529590       7.962500           0.00000       0.00000       0.00000
 H -9.0941899E-02   10.24190       7.154470           0.00000       0.00000       0.00000
 H  0.5298570       8.829700       8.173940           0.00000       0.00000       0.00000
 H  -1.164400       8.934730       7.639100           0.00000       0.00000       0.00000
 H -0.5429070       10.07380       8.870880           0.00000       0.00000       0.00000
 C   6.464480       3.704480       7.491720           0.00000       0.00000       0.00000
 H   5.460990       4.144260       7.438380           0.00000       0.00000       0.00000
 H   6.889180       3.609330       6.488600           0.00000       0.00000       0.00000
 H   6.430880       2.714310       7.926310           0.00000       0.00000       0.00000
 H   7.108420       4.349960       8.089380           0.00000       0.00000       0.00000
 C   7.418550       7.524960       14.06820           0.00000       0.00000       0.00000
 H   7.869750       6.814620       14.76090           0.00000       0.00000       0.00000
 H   7.042770       7.013070       13.19000           0.00000       0.00000       0.00000
 H   8.131950       8.242970       13.69540           0.00000       0.00000       0.00000
 H   6.552190       8.005020       14.51200           0.00000       0.00000       0.00000
 C  -1.198580       12.31040       13.73130           0.00000       0.00000       0.00000
 H -0.2618010       11.95320       14.13490           0.00000       0.00000       0.00000
 H  -1.097990       12.52880       12.68030           0.00000       0.00000       0.00000
 H  -1.929760       11.50680       13.84040           0.00000       0.00000       0.00000
 H  -1.465850       13.20290       14.30400           0.00000       0.00000       0.00000
 C   9.687030       15.10690       7.738870           0.00000       0.00000       0.00000
 H   10.18700       15.50940       6.869560           0.00000       0.00000       0.00000
 H   10.12760       14.14870       8.023900           0.00000       0.00000       0.00000
 H   8.619980       15.06410       7.573690           0.00000       0.00000       0.00000
 H   9.888660       15.75690       8.594770           0.00000       0.00000       0.00000
 C   11.90420       11.18800       7.888110           0.00000       0.00000       0.00000
 H   12.50940       10.30750       8.027100           0.00000       0.00000       0.00000
 H   12.56230       12.04250       7.831100           0.00000       0.00000       0.00000
 H   11.31580       11.10540       6.972760           0.00000       0.00000       0.00000
 H   11.21880       11.34760       8.708280           0.00000       0.00000       0.00000
 C   1.726270       15.88870       8.449660           0.00000       0.00000       0.00000
 H   1.251830       15.07950       7.897550           0.00000       0.00000       0.00000
 H   2.361520       15.45710       9.227550           0.00000       0.00000       0.00000
 H  0.9615540       16.47570       8.922820           0.00000       0.00000       0.00000
 H   2.315240       16.50340       7.790140           0.00000       0.00000       0.00000
 C   8.255340       17.79460       15.78880           0.00000       0.00000       0.00000
 H   8.656110       16.84850       16.10400           0.00000       0.00000       0.00000
 H   8.964120       18.56870       16.07600           0.00000       0.00000       0.00000
 H   8.113380       17.86490       14.70100           0.00000       0.00000       0.00000
 H   7.307670       17.96050       16.27870           0.00000       0.00000       0.00000
 C  -1.463760       6.480660       9.921420           0.00000       0.00000       0.00000
 H  -1.725230       6.173840       10.93000           0.00000       0.00000       0.00000
 H -0.6976030       5.808650       9.543890           0.00000       0.00000       0.00000
 H -0.9701030       7.466680       9.965600           0.00000       0.00000       0.00000
 H  -2.349590       6.426410       9.282180           0.00000       0.00000       0.00000
 C   8.291900       9.575510       17.49870           0.00000       0.00000       0.00000
 H   7.599820       9.544740       18.33780           0.00000       0.00000       0.00000
 H   7.769610       9.215410       16.63360           0.00000       0.00000       0.00000
 H   8.643460       10.60080       17.32600           0.00000       0.00000       0.00000
 H   9.158730       8.918180       17.64930           0.00000       0.00000       0.00000
 C  0.7042450       4.287150       12.23690           0.00000       0.00000       0.00000
 H  0.6320900       5.239780       12.73030           0.00000       0.00000       0.00000
 H  0.3007130       4.347780       11.23040           0.00000       0.00000       0.00000
 H   1.748850       4.001610       12.20330           0.00000       0.00000       0.00000
 H  0.1132670       3.560140       12.78570           0.00000       0.00000       0.00000
 C   2.612950       13.35970       14.10910           0.00000       0.00000       0.00000
 H   2.842660       12.36920       13.69700           0.00000       0.00000       0.00000
 H   1.736730       13.77760       13.60580           0.00000       0.00000       0.00000
 H   3.486240       13.95080       13.86690           0.00000       0.00000       0.00000
 H   2.486690       13.26550       15.20470           0.00000       0.00000       0.00000
 C   7.112830       14.19900       4.871060           0.00000       0.00000       0.00000
 H   8.182730       14.14910       5.022190           0.00000       0.00000       0.00000
 H   6.808810       15.23560       4.899860           0.00000       0.00000       0.00000
 H   6.634980       13.61180       5.671360           0.00000       0.00000       0.00000
 H   6.916600       13.76630       3.876460           0.00000       0.00000       0.00000
 C   5.430560       10.73620       4.741130           0.00000       0.00000       0.00000
 H   4.646710       10.15030       5.214650           0.00000       0.00000       0.00000
 H   4.984180       11.53330       4.106320           0.00000       0.00000       0.00000
 H   6.001170       11.21380       5.534480           0.00000       0.00000       0.00000
 H   6.098280       10.15480       4.109950           0.00000       0.00000       0.00000
 C   9.301770       13.20600       10.87550           0.00000       0.00000       0.00000
 H   8.413710       13.32610       10.21430           0.00000       0.00000       0.00000
 H   9.464900       12.16930       11.15900           0.00000       0.00000       0.00000
 H   10.17050       13.54840       10.32570           0.00000       0.00000       0.00000
 H   9.206830       13.80230       11.79210           0.00000       0.00000       0.00000
 C   2.620510       12.88960       6.085210           0.00000       0.00000       0.00000
 H   3.367600       13.39690       5.482050           0.00000       0.00000       0.00000
 H   2.592300       11.81670       5.905080           0.00000       0.00000       0.00000
 H   2.866430       13.01260       7.107680           0.00000       0.00000       0.00000
 H   1.669700       13.34520       5.896330           0.00000       0.00000       0.00000
 C   1.461380       12.64990       10.26080           0.00000       0.00000       0.00000
 H  0.3695790       12.45490       10.20940           0.00000       0.00000       0.00000
 H   1.631070       13.58620       10.79130           0.00000       0.00000       0.00000
 H   1.909860       11.83290       10.81270           0.00000       0.00000       0.00000
 H   1.930110       12.69950       9.268410           0.00000       0.00000       0.00000
 C   3.163560       10.01310       19.80720           0.00000       0.00000       0.00000
 H   2.321000       9.364190       19.58270           0.00000       0.00000       0.00000
 H   3.323060       10.02900       20.87910           0.00000       0.00000       0.00000
 H   2.917160       11.04990       19.56780           0.00000       0.00000       0.00000
 H   4.069220       9.681210       19.29190           0.00000       0.00000       0.00000
 C   1.716370       9.976410       15.95670           0.00000       0.00000       0.00000
 H   1.120010       9.143890       15.60150           0.00000       0.00000       0.00000
 H   2.084310       10.56900       15.12560           0.00000       0.00000       0.00000
 H   2.543100       9.581360       16.49590           0.00000       0.00000       0.00000
 H   1.055540       10.54500       16.60210           0.00000       0.00000       0.00000
 C   5.288590       13.26350       10.86360           0.00000       0.00000       0.00000
 H   6.049750       12.71560       11.39460           0.00000       0.00000       0.00000
 H   5.346350       13.02900       9.799130           0.00000       0.00000       0.00000
 H   4.317160       12.95000       11.21440           0.00000       0.00000       0.00000
 H   5.418570       14.32900       11.00330           0.00000       0.00000       0.00000
 C   8.006110       11.12890       8.004140           0.00000       0.00000       0.00000
 H   8.780760       11.04210       8.792800           0.00000       0.00000       0.00000
 H   7.154750       10.53900       8.336340           0.00000       0.00000       0.00000
 H   8.404430       10.69740       7.092190           0.00000       0.00000       0.00000
 H   7.806270       12.16850       7.787390           0.00000       0.00000       0.00000
 C   4.622150       16.40540       16.78610           0.00000       0.00000       0.00000
 H   4.032360       15.54630       17.11020           0.00000       0.00000       0.00000
 H   4.467520       16.59260       15.71730           0.00000       0.00000       0.00000
 H   5.683310       16.20960       16.92630           0.00000       0.00000       0.00000
 H   4.393340       17.23330       17.42530           0.00000       0.00000       0.00000
 C   1.166380       9.291980       12.22280           0.00000       0.00000       0.00000
 H   1.335250       9.232330       11.15390           0.00000       0.00000       0.00000
 H  0.9376630       8.272400       12.52830           0.00000       0.00000       0.00000
 H   2.033940       9.664550       12.76910           0.00000       0.00000       0.00000
 H  0.3332540       9.964090       12.42150           0.00000       0.00000       0.00000
 C   9.748030       7.417870       7.535500           0.00000       0.00000       0.00000
 H   9.477260       6.893330       8.454100           0.00000       0.00000       0.00000
 H   10.01690       6.688210       6.771490           0.00000       0.00000       0.00000
 H   8.864350       8.003490       7.207400           0.00000       0.00000       0.00000
 H   10.57150       8.112350       7.737280           0.00000       0.00000       0.00000
 C   3.192960       17.03220       11.93720           0.00000       0.00000       0.00000
 H   2.548290       17.59910       11.27350           0.00000       0.00000       0.00000
 H   4.220220       17.11750       11.57560           0.00000       0.00000       0.00000
 H   3.127360       17.47710       12.92600           0.00000       0.00000       0.00000
 H   2.900340       15.97790       11.96570           0.00000       0.00000       0.00000
 C   6.816570       14.39630       14.44130           0.00000       0.00000       0.00000
 H   7.435890       14.08630       15.28120           0.00000       0.00000       0.00000
 H   5.794350       14.04390       14.60400           0.00000       0.00000       0.00000
 H   6.830360       15.46140       14.35390           0.00000       0.00000       0.00000
 H   7.218650       13.94580       13.55060           0.00000       0.00000       0.00000
 C   9.582720       13.48950       17.81420           0.00000       0.00000       0.00000
 H   10.36210       12.80260       18.15420           0.00000       0.00000       0.00000
 H   9.634600       13.65060       16.72630           0.00000       0.00000       0.00000
 H   8.585320       13.11010       18.03990           0.00000       0.00000       0.00000
 H   9.665570       14.43550       18.30980           0.00000       0.00000       0.00000
 C   9.613740       11.34670       14.38140           0.00000       0.00000       0.00000
 H   9.216500       12.35250       14.39810           0.00000       0.00000       0.00000
 H   10.17980       11.20950       15.28150           0.00000       0.00000       0.00000
 H   8.823920       10.61680       14.43300           0.00000       0.00000       0.00000
 H   10.22530       11.17940       13.49330           0.00000       0.00000       0.00000
 C   1.599380       13.42720       17.95340           0.00000       0.00000       0.00000
 H   1.285640       13.02710       18.89340           0.00000       0.00000       0.00000
 H   1.519760       14.50780       17.95870           0.00000       0.00000       0.00000
 H  0.9367870       13.00990       17.20290           0.00000       0.00000       0.00000
 H   2.623010       13.10190       17.74270           0.00000       0.00000       0.00000
 C   6.212310       7.869260       20.85100           0.00000       0.00000       0.00000
 H   6.797590       7.740880       19.94590           0.00000       0.00000       0.00000
 H   6.698630       7.396220       21.70980           0.00000       0.00000       0.00000
 H   6.036130       8.940290       21.06670           0.00000       0.00000       0.00000
 H   5.292180       7.332170       20.70610           0.00000       0.00000       0.00000
 C   12.26440       15.96410       10.47620           0.00000       0.00000       0.00000
 H   12.26930       16.05850       9.389900           0.00000       0.00000       0.00000
 H   12.61390       16.91400       10.84710           0.00000       0.00000       0.00000
 H   11.27680       15.73780       10.85880           0.00000       0.00000       0.00000
 H   12.92410       15.12260       10.74250           0.00000       0.00000       0.00000
 C -0.7590350       15.97620       12.09740           0.00000       0.00000       0.00000
 H  -1.595470       15.57380       12.66710           0.00000       0.00000       0.00000
 H -0.2399040       15.19110       11.56040           0.00000       0.00000       0.00000
 H  -1.192350       16.68060       11.36140           0.00000       0.00000       0.00000
 H -5.5665102E-02   16.50690       12.69340           0.00000       0.00000       0.00000
 C   12.19940       10.05440       16.80780           0.00000       0.00000       0.00000
 H   11.42100       9.328670       16.90660           0.00000       0.00000       0.00000
 H   12.53040       10.15910       15.77120           0.00000       0.00000       0.00000
 H   13.07470       9.738470       17.39920           0.00000       0.00000       0.00000
 H   11.82970       11.00760       17.14030           0.00000       0.00000       0.00000
 C   13.74000       13.22900       16.14530           0.00000       0.00000       0.00000
 H   13.19960       14.05040       16.61110           0.00000       0.00000       0.00000
 H   14.70800       13.58750       15.74580           0.00000       0.00000       0.00000
 H   13.93250       12.46050       16.88980           0.00000       0.00000       0.00000
 H   13.07160       12.75750       15.42230           0.00000       0.00000       0.00000
 C  -3.374600       10.60460       10.68830           0.00000       0.00000       0.00000
 H  -3.930040       9.709000       10.43270           0.00000       0.00000       0.00000
 H  -3.163920       11.10610       9.756040           0.00000       0.00000       0.00000
 H  -2.446420       10.25860       11.11620           0.00000       0.00000       0.00000
 H  -3.892590       11.25950       11.37550           0.00000       0.00000       0.00000
 C   3.378190       6.808200       13.40080           0.00000       0.00000       0.00000
 H   2.956040       7.439200       14.16180           0.00000       0.00000       0.00000
 H   4.436440       6.710440       13.58730           0.00000       0.00000       0.00000
 H   2.938600       5.793150       13.40980           0.00000       0.00000       0.00000
 H   3.253490       7.254180       12.40860           0.00000       0.00000       0.00000
 C   11.18600       6.665270       15.25630           0.00000       0.00000       0.00000
 H   10.30470       7.125490       15.64110           0.00000       0.00000       0.00000
 H   12.01970       7.152860       15.78080           0.00000       0.00000       0.00000
 H   11.21690       5.616840       15.50010           0.00000       0.00000       0.00000
 H   11.25520       6.790920       14.16860           0.00000       0.00000       0.00000
 C   9.761430       5.292260       11.76690           0.00000       0.00000       0.00000
 H   9.298940       5.905360       10.97980           0.00000       0.00000       0.00000
 H   9.181790       4.373070       11.86590           0.00000       0.00000       0.00000
 H   10.78700       5.089700       11.46160           0.00000       0.00000       0.00000
 H   9.724780       5.812900       12.75060           0.00000       0.00000       0.00000
 C   12.80120       11.86630       12.33550           0.00000       0.00000       0.00000
 H   13.43890       12.63200       12.74650           0.00000       0.00000       0.00000
 H   12.60410       11.14290       13.10850           0.00000       0.00000       0.00000
 H   13.30410       11.38220       11.51540           0.00000       0.00000       0.00000
 H   11.83990       12.32650       12.03220           0.00000       0.00000       0.00000
 C   3.598910       9.898570       8.875910           0.00000       0.00000       0.00000
 H   3.735060       9.795440       9.934570           0.00000       0.00000       0.00000
 H   4.472040       10.40700       8.453730           0.00000       0.00000       0.00000
 H   3.495090       8.904370       8.457780           0.00000       0.00000       0.00000
 H   2.660690       10.43790       8.648570           0.00000       0.00000       0.00000
 C   10.53230       15.55970       14.32810           0.00000       0.00000       0.00000
 H   9.573560       15.18190       13.96070           0.00000       0.00000       0.00000
 H   11.31480       15.06720       13.72850           0.00000       0.00000       0.00000
 H   10.70410       15.27420       15.33360           0.00000       0.00000       0.00000
 H   10.58260       16.62160       14.18300           0.00000       0.00000       0.00000
 C   10.37760       8.810530       10.98170           0.00000       0.00000       0.00000
 H   9.819320       8.949770       11.90110           0.00000       0.00000       0.00000
 H   10.98520       7.907690       11.09620           0.00000       0.00000       0.00000
 H   9.690300       8.737920       10.11170           0.00000       0.00000       0.00000
 H   11.00510       9.660710       10.78820           0.00000       0.00000       0.00000
 C   1.178120       6.986250       17.73100           0.00000       0.00000       0.00000
 H  0.3214670       7.638560       17.89240           0.00000       0.00000       0.00000
 H   2.089930       7.398330       18.17260           0.00000       0.00000       0.00000
 H  0.9617430       6.014460       18.14880           0.00000       0.00000       0.00000
 H   1.308890       6.892600       16.64870           0.00000       0.00000       0.00000
 C   6.240310       8.358040       10.75920           0.00000       0.00000       0.00000
 H   7.029900       7.620350       10.63980           0.00000       0.00000       0.00000
 H   6.688890       9.330430       10.63930           0.00000       0.00000       0.00000
 H   5.802490       8.305670       11.75370           0.00000       0.00000       0.00000
 H   5.462690       8.192340       10.01460           0.00000       0.00000       0.00000
