#total energy=-4.3720379 eV

CRYSTAL
PRIMVEC
        75.9000000            0.00000000           0.00000000
        0.00000000            75.9000000           0.00000000
        0.00000000            0.00000000           75.9000000
PRIMCOORD
320 1
 C   6.396250       3.207830       2.709450           0.00000       0.00000       0.00000
 H   5.657780       3.954870       3.004300           0.00000       0.00000       0.00000
 H   7.271170       3.279780       3.332100           0.00000       0.00000       0.00000
 H   6.708780       3.380230       1.699090           0.00000       0.00000       0.00000
 H   5.951780       2.201270       2.808010           0.00000       0.00000       0.00000
 C   11.56060       12.52760       5.403750           0.00000       0.00000       0.00000
 H   11.01850       11.65580       5.050110           0.00000       0.00000       0.00000
 H   10.89720       13.40260       5.311250           0.00000       0.00000       0.00000
 H   12.51120       12.64620       4.864330           0.00000       0.00000       0.00000
 H   11.78460       12.40910       6.464580           0.00000       0.00000       0.00000
 C   6.060760       7.661350       11.80990           0.00000       0.00000       0.00000
 H   6.732530       7.669250       10.96140           0.00000       0.00000       0.00000
 H   5.037220       7.738170       11.41510           0.00000       0.00000       0.00000
 H   6.154520       6.741750       12.38470           0.00000       0.00000       0.00000
 H   6.277630       8.538790       12.41650           0.00000       0.00000       0.00000
 C   3.693200       8.288230       8.461180           0.00000       0.00000       0.00000
 H   3.417820       9.340330       8.367420           0.00000       0.00000       0.00000
 H   2.989050       7.810580       9.137940           0.00000       0.00000       0.00000
 H   3.694390       7.826510       7.461140           0.00000       0.00000       0.00000
 H   4.698420       8.284700       8.889400           0.00000       0.00000       0.00000
 C   7.900240       5.072060       14.98880           0.00000       0.00000       0.00000
 H   8.820520       4.648480       14.63490           0.00000       0.00000       0.00000
 H   8.086130       5.678890       15.86080           0.00000       0.00000       0.00000
 H   7.450960       5.674200       14.20230           0.00000       0.00000       0.00000
 H   7.266560       4.245340       15.28050           0.00000       0.00000       0.00000
 C   5.596770       10.59330       5.984370           0.00000       0.00000       0.00000
 H   6.372350       11.18480       6.511420           0.00000       0.00000       0.00000
 H   4.982940       11.30460       5.432990           0.00000       0.00000       0.00000
 H   6.058760       9.914170       5.257950           0.00000       0.00000       0.00000
 H   4.962920       10.02660       6.672890           0.00000       0.00000       0.00000
 C   8.752510      0.5318880       5.093460           0.00000       0.00000       0.00000
 H   8.736950     -0.4773010       5.497990           0.00000       0.00000       0.00000
 H   8.996370      0.5098520       4.024180           0.00000       0.00000       0.00000
 H   7.775150       1.006030       5.258170           0.00000       0.00000       0.00000
 H   9.510690       1.140290       5.600630           0.00000       0.00000       0.00000
 C   7.924410       13.10890       4.839640           0.00000       0.00000       0.00000
 H   8.475380       13.60720       4.050270           0.00000       0.00000       0.00000
 H   8.353340       12.09530       4.949400           0.00000       0.00000       0.00000
 H   6.879260       13.05010       4.552600           0.00000       0.00000       0.00000
 H   8.040650       13.71400       5.730720           0.00000       0.00000       0.00000
 C   3.673060       14.27070       10.92810           0.00000       0.00000       0.00000
 H   3.457320       14.18440       11.98190           0.00000       0.00000       0.00000
 H   4.411140       13.53570       10.61430           0.00000       0.00000       0.00000
 H   2.782470       14.11010       10.33810           0.00000       0.00000       0.00000
 H   4.068990       15.28140       10.72430           0.00000       0.00000       0.00000
 C   2.013980       9.874250       11.43570           0.00000       0.00000       0.00000
 H   2.440460       10.84150       11.71340           0.00000       0.00000       0.00000
 H   1.675890       9.878590       10.39420           0.00000       0.00000       0.00000
 H   2.802190       9.102990       11.53970           0.00000       0.00000       0.00000
 H   1.185050       9.641120       12.09960           0.00000       0.00000       0.00000
 C   10.70500       11.72160       1.825550           0.00000       0.00000       0.00000
 H   11.21030       10.79020       1.603360           0.00000       0.00000       0.00000
 H   9.996130       11.48230       2.613430           0.00000       0.00000       0.00000
 H   11.44540       12.43840       2.193080           0.00000       0.00000       0.00000
 H   10.18970       12.09520      0.9458520           0.00000       0.00000       0.00000
 C   7.829670       8.773570       15.33960           0.00000       0.00000       0.00000
 H   8.061790       9.197490       14.37180           0.00000       0.00000       0.00000
 H   6.862930       8.240350       15.30630           0.00000       0.00000       0.00000
 H   7.752370       9.549560       16.09500           0.00000       0.00000       0.00000
 H   8.589770       8.059330       15.65920           0.00000       0.00000       0.00000
 C   11.59110       6.992330       16.51860           0.00000       0.00000       0.00000
 H   12.62830       6.790750       16.88230           0.00000       0.00000       0.00000
 H   11.56760       7.772510       15.76970           0.00000       0.00000       0.00000
 H   11.00890       7.254850       17.39860           0.00000       0.00000       0.00000
 H   11.18370       6.079060       16.10130           0.00000       0.00000       0.00000
 C   8.764280       10.54820       11.70350           0.00000       0.00000       0.00000
 H   9.495400       10.46550       12.49310           0.00000       0.00000       0.00000
 H   8.742040       9.622730       11.12100           0.00000       0.00000       0.00000
 H   9.122020       11.33770       11.00930           0.00000       0.00000       0.00000
 H   7.794250       10.83180       12.14100           0.00000       0.00000       0.00000
 C   11.23510       13.77740       11.59390           0.00000       0.00000       0.00000
 H   10.31160       13.36470       11.18100           0.00000       0.00000       0.00000
 H   11.97440       12.98140       11.67290           0.00000       0.00000       0.00000
 H   11.59810       14.61210       10.97430           0.00000       0.00000       0.00000
 H   11.01520       14.18390       12.58950           0.00000       0.00000       0.00000
 C   8.249120       7.965870       7.975640           0.00000       0.00000       0.00000
 H   9.075480       8.330640       7.335420           0.00000       0.00000       0.00000
 H   8.061230       6.897640       7.781090           0.00000       0.00000       0.00000
 H   8.545950       8.068490       9.018280           0.00000       0.00000       0.00000
 H   7.380060       8.573000       7.765010           0.00000       0.00000       0.00000
 C   6.795490       12.90960       1.459880           0.00000       0.00000       0.00000
 H   6.427010       13.79500       1.964880           0.00000       0.00000       0.00000
 H   6.254770       12.75600      0.5250300           0.00000       0.00000       0.00000
 H   6.664190       12.06380       2.131770           0.00000       0.00000       0.00000
 H   7.857520       13.03760       1.291960           0.00000       0.00000       0.00000
 C   2.862970       5.984740       2.502820           0.00000       0.00000       0.00000
 H   3.934090       5.944910       2.306770           0.00000       0.00000       0.00000
 H   2.725020       6.253950       3.543400           0.00000       0.00000       0.00000
 H   2.408220       6.724980       1.854100           0.00000       0.00000       0.00000
 H   2.426710       5.022870       2.300350           0.00000       0.00000       0.00000
 C   5.862060       14.39890       7.877270           0.00000       0.00000       0.00000
 H   6.343710       15.29410       7.461910           0.00000       0.00000       0.00000
 H   6.497380       13.98380       8.660240           0.00000       0.00000       0.00000
 H   4.890040       14.68990       8.249260           0.00000       0.00000       0.00000
 H   5.716840       13.65900       7.074700           0.00000       0.00000       0.00000
 C   8.861210       9.330660       4.111620           0.00000       0.00000       0.00000
 H   8.241760       10.11780       3.698400           0.00000       0.00000       0.00000
 H   9.612830       8.961600       3.417850           0.00000       0.00000       0.00000
 H   9.339980       9.711230       5.017530           0.00000       0.00000       0.00000
 H   8.202410       8.531700       4.388180           0.00000       0.00000       0.00000
 C   11.43510       3.511580       13.35770           0.00000       0.00000       0.00000
 H   10.50660       3.025550       13.68410           0.00000       0.00000       0.00000
 H   11.41970       4.565720       13.69080           0.00000       0.00000       0.00000
 H   11.45750       3.448740       12.26100           0.00000       0.00000       0.00000
 H   12.32750       3.027540       13.77960           0.00000       0.00000       0.00000
 C   8.967570       13.06850       14.72930           0.00000       0.00000       0.00000
 H   8.216500       12.41550       15.18370           0.00000       0.00000       0.00000
 H   8.674710       14.10680       14.90160           0.00000       0.00000       0.00000
 H   8.981270       12.87630       13.65760           0.00000       0.00000       0.00000
 H   9.915860       12.84640       15.19950           0.00000       0.00000       0.00000
 C   2.503850       12.15860       7.830280           0.00000       0.00000       0.00000
 H   2.762150       11.71300       8.775230           0.00000       0.00000       0.00000
 H   2.253370       13.21270       7.975900           0.00000       0.00000       0.00000
 H   1.679450       11.62650       7.374310           0.00000       0.00000       0.00000
 H   3.410260       12.10180       7.261820           0.00000       0.00000       0.00000
 C   4.811890       11.42310       13.58160           0.00000       0.00000       0.00000
 H   4.942190       12.41500       13.18610           0.00000       0.00000       0.00000
 H   4.918420       10.70800       12.79360           0.00000       0.00000       0.00000
 H   5.585120       11.22170       14.33010           0.00000       0.00000       0.00000
 H   3.804680       11.31640       13.96770           0.00000       0.00000       0.00000
 C   13.73880       12.87930       8.710120           0.00000       0.00000       0.00000
 H   14.11160       13.53140       7.919700           0.00000       0.00000       0.00000
 H   14.29600       13.00860       9.639180           0.00000       0.00000       0.00000
 H   13.88550       11.85390       8.405190           0.00000       0.00000       0.00000
 H   12.68090       13.07140       8.853070           0.00000       0.00000       0.00000
 C   1.546740       5.374230       6.953700           0.00000       0.00000       0.00000
 H  0.6317970       4.833610       7.139410           0.00000       0.00000       0.00000
 H   1.430200       6.004530       6.059200           0.00000       0.00000       0.00000
 H   1.764210       6.034790       7.788360           0.00000       0.00000       0.00000
 H   2.377730       4.684460       6.794110           0.00000       0.00000       0.00000
 C   9.920080       1.613300       9.266150           0.00000       0.00000       0.00000
 H   9.443450       1.703230       10.21680           0.00000       0.00000       0.00000
 H   10.05050       2.609550       8.828980           0.00000       0.00000       0.00000
 H   9.312140       1.021020       8.591950           0.00000       0.00000       0.00000
 H   10.87660       1.104300       9.438600           0.00000       0.00000       0.00000
 C   11.86530       7.197050       1.777440           0.00000       0.00000       0.00000
 H   11.54040       8.094430       1.243680           0.00000       0.00000       0.00000
 H   10.99950       6.563120       1.977870           0.00000       0.00000       0.00000
 H   12.57190       6.650820       1.154970           0.00000       0.00000       0.00000
 H   12.35700       7.491440       2.705830           0.00000       0.00000       0.00000
 C   7.575790       14.63530       11.45590           0.00000       0.00000       0.00000
 H   7.561970       15.32020       10.59920           0.00000       0.00000       0.00000
 H   8.011460       13.69440       11.10090           0.00000       0.00000       0.00000
 H   6.577960       14.49970       11.89820           0.00000       0.00000       0.00000
 H   8.202390       15.05460       12.23300           0.00000       0.00000       0.00000
 C   5.833400       1.032150       9.918240           0.00000       0.00000       0.00000
 H   6.452920       1.457180       9.140580           0.00000       0.00000       0.00000
 H   4.907730      0.6848500       9.445660           0.00000       0.00000       0.00000
 H   6.344040      0.1662900       10.35590           0.00000       0.00000       0.00000
 H   5.633080       1.781550       10.67650           0.00000       0.00000       0.00000
 C   7.786240       1.403940       13.41880           0.00000       0.00000       0.00000
 H   7.267520       2.228010       13.93920           0.00000       0.00000       0.00000
 H   8.622160       1.029490       14.02530           0.00000       0.00000       0.00000
 H   7.110080      0.5665420       13.26910           0.00000       0.00000       0.00000
 H   8.147770       1.723090       12.44720           0.00000       0.00000       0.00000
 C   11.97670       9.642070       10.17900           0.00000       0.00000       0.00000
 H   12.43280       8.800510       10.71010           0.00000       0.00000       0.00000
 H   11.80900       10.42050       10.91460           0.00000       0.00000       0.00000
 H   11.02050       9.363570       9.733950           0.00000       0.00000       0.00000
 H   12.68070       9.989660       9.413950           0.00000       0.00000       0.00000
 C   8.068310       3.844960       6.870740           0.00000       0.00000       0.00000
 H   8.575690       3.632780       5.937620           0.00000       0.00000       0.00000
 H   8.725710       4.415470       7.494170           0.00000       0.00000       0.00000
 H   7.759020       2.922470       7.377440           0.00000       0.00000       0.00000
 H   7.180000       4.454510       6.685830           0.00000       0.00000       0.00000
 C   13.76850       10.21250       3.149660           0.00000       0.00000       0.00000
 H   13.86530       11.28810       3.268990           0.00000       0.00000       0.00000
 H   14.58150       9.714910       3.660620           0.00000       0.00000       0.00000
 H   12.84950       9.907730       3.669210           0.00000       0.00000       0.00000
 H   13.74180       9.960040       2.080050           0.00000       0.00000       0.00000
 C   12.21950       9.067210       6.664280           0.00000       0.00000       0.00000
 H   11.41680       9.612410       7.182390           0.00000       0.00000       0.00000
 H   11.80900       8.497590       5.805230           0.00000       0.00000       0.00000
 H   12.96850       9.754670       6.274070           0.00000       0.00000       0.00000
 H   12.68890       8.365570       7.345850           0.00000       0.00000       0.00000
 C   5.692250       10.95910       9.777970           0.00000       0.00000       0.00000
 H   5.597830       11.17180       8.710820           0.00000       0.00000       0.00000
 H   4.727470       10.87670       10.22110           0.00000       0.00000       0.00000
 H   6.229500       10.01350       9.910640           0.00000       0.00000       0.00000
 H   6.238610       11.77120       10.24450           0.00000       0.00000       0.00000
 C   5.038950       5.182430       9.035620           0.00000       0.00000       0.00000
 H   5.774150       5.862290       8.625280           0.00000       0.00000       0.00000
 H   4.127700       5.259230       8.430380           0.00000       0.00000       0.00000
 H   5.375500       4.152850       9.097490           0.00000       0.00000       0.00000
 H   4.825820       5.524950       10.04550           0.00000       0.00000       0.00000
 C   11.70210       10.49890       14.30710           0.00000       0.00000       0.00000
 H   11.93500       9.746180       13.53700           0.00000       0.00000       0.00000
 H   11.54310       11.47280       13.89370           0.00000       0.00000       0.00000
 H   12.51120       10.52660       15.05080           0.00000       0.00000       0.00000
 H   10.77950       10.22160       14.85380           0.00000       0.00000       0.00000
 C   16.12240       10.47350       10.38680           0.00000       0.00000       0.00000
 H   15.06790       10.46710       10.62400           0.00000       0.00000       0.00000
 H   16.69870       10.85510       11.23330           0.00000       0.00000       0.00000
 H   16.27610       11.14070       9.546990           0.00000       0.00000       0.00000
 H   16.48710       9.472550       10.15300           0.00000       0.00000       0.00000
 C   9.952670       7.193630       12.50910           0.00000       0.00000       0.00000
 H   8.872550       7.393870       12.56360           0.00000       0.00000       0.00000
 H   10.09020       6.192230       12.13210           0.00000       0.00000       0.00000
 H   10.39790       7.892590       11.79800           0.00000       0.00000       0.00000
 H   10.42560       7.297000       13.49530           0.00000       0.00000       0.00000
 C   16.04760       9.883720       6.578660           0.00000       0.00000       0.00000
 H   15.60310       9.707820       7.549600           0.00000       0.00000       0.00000
 H   17.13450       9.811750       6.579130           0.00000       0.00000       0.00000
 H   15.72530       10.85280       6.206090           0.00000       0.00000       0.00000
 H   15.68320       9.093740       5.897480           0.00000       0.00000       0.00000
 C   13.91950       3.135210       9.884140           0.00000       0.00000       0.00000
 H   14.66250       3.383650       9.111960           0.00000       0.00000       0.00000
 H   13.75790       4.049760       10.44530           0.00000       0.00000       0.00000
 H   14.28710       2.352900       10.54850           0.00000       0.00000       0.00000
 H   12.99510       2.845050       9.424270           0.00000       0.00000       0.00000
 C   11.07330       5.700130       9.165530           0.00000       0.00000       0.00000
 H   11.28640       6.659400       9.662380           0.00000       0.00000       0.00000
 H   10.04280       5.711440       8.836750           0.00000       0.00000       0.00000
 H   11.75250       5.565790       8.333980           0.00000       0.00000       0.00000
 H   11.23300       4.876030       9.877130           0.00000       0.00000       0.00000
 C   5.544450       6.538000       5.252000           0.00000       0.00000       0.00000
 H   5.293320       7.318780       4.519360           0.00000       0.00000       0.00000
 H   4.650900       6.178620       5.732920           0.00000       0.00000       0.00000
 H   6.029800       5.705840       4.731940           0.00000       0.00000       0.00000
 H   6.279100       6.903640       5.951100           0.00000       0.00000       0.00000
 C   13.51480       6.827540       12.67620           0.00000       0.00000       0.00000
 H   14.11840       5.953420       12.91760           0.00000       0.00000       0.00000
 H   14.12620       7.554800       12.17460           0.00000       0.00000       0.00000
 H   12.68570       6.530450       12.01280           0.00000       0.00000       0.00000
 H   13.12800       7.281380       13.58890           0.00000       0.00000       0.00000
 C   10.09010       6.129520       5.331160           0.00000       0.00000       0.00000
 H   10.51750       6.318480       6.331720           0.00000       0.00000       0.00000
 H   10.32920       5.135810       5.001290           0.00000       0.00000       0.00000
 H   9.008250       6.192700       5.442220           0.00000       0.00000       0.00000
 H   10.47710       6.872800       4.639460           0.00000       0.00000       0.00000
 C   4.575490       3.926580       13.25220           0.00000       0.00000       0.00000
 H   5.258390       4.589650       13.77520           0.00000       0.00000       0.00000
 H   4.589910       2.899280       13.62660           0.00000       0.00000       0.00000
 H   3.573430       4.334740       13.35240           0.00000       0.00000       0.00000
 H   4.773130       3.938000       12.16630           0.00000       0.00000       0.00000
 C   3.410140       7.987540       14.56840           0.00000       0.00000       0.00000
 H   4.447640       7.751820       14.33200           0.00000       0.00000       0.00000
 H   3.109920       7.561220       15.53480           0.00000       0.00000       0.00000
 H   3.313520       9.073590       14.61460           0.00000       0.00000       0.00000
 H   2.818450       7.579440       13.73390           0.00000       0.00000       0.00000
 C   4.635410       2.398670       5.752990           0.00000       0.00000       0.00000
 H   4.364030       2.255640       6.799000           0.00000       0.00000       0.00000
 H   5.579330       2.980650       5.619830           0.00000       0.00000       0.00000
 H   3.817950       2.972030       5.265540           0.00000       0.00000       0.00000
 H   4.750560       1.408550       5.310590           0.00000       0.00000       0.00000
 C   8.030450       6.660050       1.820710           0.00000       0.00000       0.00000
 H   6.994500       6.495670       1.485030           0.00000       0.00000       0.00000
 H   8.091890       6.323390       2.863650           0.00000       0.00000       0.00000
 H   8.725250       6.090070       1.179190           0.00000       0.00000       0.00000
 H   8.263800       7.725760       1.778930           0.00000       0.00000       0.00000
 C   9.975430       3.073630       2.329940           0.00000       0.00000       0.00000
 H   9.450650       4.033110       2.328680           0.00000       0.00000       0.00000
 H   9.397920       2.335910       1.766510           0.00000       0.00000       0.00000
 H   10.96440       3.198330       1.886130           0.00000       0.00000       0.00000
 H   10.05840       2.731090       3.362950           0.00000       0.00000       0.00000
 C   7.915900       4.390840       11.00140           0.00000       0.00000       0.00000
 H   7.118050       4.425550       11.74760           0.00000       0.00000       0.00000
 H   8.851550       4.051080       11.47840           0.00000       0.00000       0.00000
 H   7.621150       3.692630       10.23810           0.00000       0.00000       0.00000
 H   8.023560       5.387580       10.56070           0.00000       0.00000       0.00000
 C   3.622950       13.43370       4.010570           0.00000       0.00000       0.00000
 H   4.278120       13.88890       4.775870           0.00000       0.00000       0.00000
 H   3.051100       12.61800       4.475850           0.00000       0.00000       0.00000
 H   4.248440       12.99470       3.243890           0.00000       0.00000       0.00000
 H   2.959850       14.18090       3.572210           0.00000       0.00000       0.00000
 C   2.205910       9.192540       4.921240           0.00000       0.00000       0.00000
 H   3.219450       8.782910       5.058300           0.00000       0.00000       0.00000
 H   2.149040       10.19090       5.409380           0.00000       0.00000       0.00000
 H   2.013050       9.318350       3.879660           0.00000       0.00000       0.00000
 H   1.475680       8.514800       5.345010           0.00000       0.00000       0.00000
 C   2.319880       2.343510       9.589920           0.00000       0.00000       0.00000
 H   1.337850       2.372010       10.06750           0.00000       0.00000       0.00000
 H   2.610450       3.325280       9.258850           0.00000       0.00000       0.00000
 H   2.246450       1.658690       8.740330           0.00000       0.00000       0.00000
 H   3.081640       1.982020       10.28240           0.00000       0.00000       0.00000
 C   11.96210       3.022160       6.585200           0.00000       0.00000       0.00000
 H   12.81910       3.560550       7.005320           0.00000       0.00000       0.00000
 H   11.05970       3.533510       6.922930           0.00000       0.00000       0.00000
 H   11.99340       3.004970       5.496310           0.00000       0.00000       0.00000
 H   11.93560       1.983850       6.910000           0.00000       0.00000       0.00000
 C   9.140600       11.59470       8.189560           0.00000       0.00000       0.00000
 H   8.633980       10.73050       8.613090           0.00000       0.00000       0.00000
 H   8.496700       12.48390       8.261750           0.00000       0.00000       0.00000
 H   10.08960       11.75560       8.722950           0.00000       0.00000       0.00000
 H   9.370630       11.37270       7.141380           0.00000       0.00000       0.00000
 C   8.146310       9.901340     -0.2841140           0.00000       0.00000       0.00000
 H   7.814460       10.90750     -0.5885760           0.00000       0.00000       0.00000
 H   8.930300       9.605630     -0.9872100           0.00000       0.00000       0.00000
 H   8.571280       9.938870      0.7172090           0.00000       0.00000       0.00000
 H   7.326370       9.182700     -0.3594850           0.00000       0.00000       0.00000
 C -0.2461690       8.818350       8.039100           0.00000       0.00000       0.00000
 H -0.7510770       9.264830       7.156600           0.00000       0.00000       0.00000
 H  0.8387080       8.884330       7.909820           0.00000       0.00000       0.00000
 H -0.5289960       7.773910       8.116310           0.00000       0.00000       0.00000
 H -0.5357100       9.320680       8.967420           0.00000       0.00000       0.00000
 C   10.18520       15.46840       8.013030           0.00000       0.00000       0.00000
 H   9.478950       15.61410       7.213020           0.00000       0.00000       0.00000
 H   10.16610       14.44440       8.345630           0.00000       0.00000       0.00000
 H   11.18280       15.73710       7.677850           0.00000       0.00000       0.00000
 H   9.907060       16.11490       8.849660           0.00000       0.00000       0.00000
 C   5.111760       9.406370       2.195960           0.00000       0.00000       0.00000
 H   4.556520       9.936150       2.977470           0.00000       0.00000       0.00000
 H   6.174770       9.425030       2.380590           0.00000       0.00000       0.00000
 H   4.901210       9.887790       1.246780           0.00000       0.00000       0.00000
 H   4.738260       8.391980       2.129060           0.00000       0.00000       0.00000
 C   15.41300       6.559880       8.874330           0.00000       0.00000       0.00000
 H   15.58560       6.393360       9.920520           0.00000       0.00000       0.00000
 H   14.95680       5.674370       8.451640           0.00000       0.00000       0.00000
 H   14.72120       7.378870       8.760610           0.00000       0.00000       0.00000
 H   16.35310       6.780610       8.369900           0.00000       0.00000       0.00000
 C   14.03230       6.140340       5.129070           0.00000       0.00000       0.00000
 H   14.64950       5.410210       5.664220           0.00000       0.00000       0.00000
 H   14.22800       6.062930       4.051470           0.00000       0.00000       0.00000
 H   12.97220       5.914220       5.279350           0.00000       0.00000       0.00000
 H   14.22350       7.152810       5.494290           0.00000       0.00000       0.00000
 C   1.394820       6.022150       11.04560           0.00000       0.00000       0.00000
 H  0.8122150       5.929250       11.97280           0.00000       0.00000       0.00000
 H  0.6767320       6.081130       10.23520           0.00000       0.00000       0.00000
 H   2.056800       5.158340       10.91160           0.00000       0.00000       0.00000
 H   1.992200       6.915990       11.04850           0.00000       0.00000       0.00000
