#total energy=-4.5758794 eV

CRYSTAL
PRIMVEC
        75.9000000            0.00000000           0.00000000
        0.00000000            75.9000000           0.00000000
        0.00000000            0.00000000           75.9000000
PRIMCOORD
320 1
 C   4.202220       9.794440       7.760780           0.00000       0.00000       0.00000
 H   4.175770       10.68610       7.114440           0.00000       0.00000       0.00000
 H   3.553790       9.045930       7.346910           0.00000       0.00000       0.00000
 H   3.876590       10.08810       8.767170           0.00000       0.00000       0.00000
 H   5.226890       9.429080       7.789910           0.00000       0.00000       0.00000
 C   8.393070       10.20110       1.290510           0.00000       0.00000       0.00000
 H   9.057730       10.22280       2.173100           0.00000       0.00000       0.00000
 H   8.977180       10.38480      0.3897140           0.00000       0.00000       0.00000
 H   7.611880       10.95750       1.376910           0.00000       0.00000       0.00000
 H   7.942020       9.221210       1.233990           0.00000       0.00000       0.00000
 C   10.36180       12.06320       13.20330           0.00000       0.00000       0.00000
 H   9.536370       11.47570       12.80660           0.00000       0.00000       0.00000
 H   10.55110       11.77420       14.24210           0.00000       0.00000       0.00000
 H   11.24990       11.89810       12.62120           0.00000       0.00000       0.00000
 H   10.09110       13.11960       13.19920           0.00000       0.00000       0.00000
 C   10.70490       4.029940       2.558390           0.00000       0.00000       0.00000
 H   10.30900       3.384490       1.763890           0.00000       0.00000       0.00000
 H   11.75850       3.770240       2.683500           0.00000       0.00000       0.00000
 H   10.61990       5.069920       2.254090           0.00000       0.00000       0.00000
 H   10.16880       3.873080       3.503790           0.00000       0.00000       0.00000
 C   4.547690       12.21890       1.354760           0.00000       0.00000       0.00000
 H   3.582720       11.69550       1.344910           0.00000       0.00000       0.00000
 H   4.374260       13.30880       1.353230           0.00000       0.00000       0.00000
 H   5.152310       11.92490       2.222650           0.00000       0.00000       0.00000
 H   5.091450       11.98260      0.4296970           0.00000       0.00000       0.00000
 C   10.29140       9.999120       5.415730           0.00000       0.00000       0.00000
 H   9.744490       9.156190       5.843760           0.00000       0.00000       0.00000
 H   10.65580       10.65260       6.223770           0.00000       0.00000       0.00000
 H   11.15910       9.640400       4.836060           0.00000       0.00000       0.00000
 H   9.654230       10.53790       4.720960           0.00000       0.00000       0.00000
 C   6.688210       3.998820       2.395510           0.00000       0.00000       0.00000
 H   6.144440       4.647420       1.694800           0.00000       0.00000       0.00000
 H   6.388760       2.962890       2.274350           0.00000       0.00000       0.00000
 H   7.759130       4.075060       2.188780           0.00000       0.00000       0.00000
 H   6.497620       4.327860       3.409630           0.00000       0.00000       0.00000
 C   12.36150       8.499500       14.91610           0.00000       0.00000       0.00000
 H   13.10270       9.224670       15.25330           0.00000       0.00000       0.00000
 H   11.87010       8.892700       14.03690           0.00000       0.00000       0.00000
 H   11.60880       8.327840       15.68680           0.00000       0.00000       0.00000
 H   12.86070       7.557180       14.64240           0.00000       0.00000       0.00000
 C   14.12680       10.64670       10.99260           0.00000       0.00000       0.00000
 H   13.43730       10.86950       10.16610           0.00000       0.00000       0.00000
 H   14.87310       11.44900       11.05730           0.00000       0.00000       0.00000
 H   13.59590       10.59920       11.93420           0.00000       0.00000       0.00000
 H   14.64200       9.701620       10.84930           0.00000       0.00000       0.00000
 C   4.897680      0.6224310       11.24710           0.00000       0.00000       0.00000
 H   4.003900      0.2805480       10.72980           0.00000       0.00000       0.00000
 H   5.334410       1.474430       10.75000           0.00000       0.00000       0.00000
 H   4.637230      0.9000930       12.26990           0.00000       0.00000       0.00000
 H   5.638020     -0.1798050       11.24270           0.00000       0.00000       0.00000
 C   2.772020       2.404150       8.813720           0.00000       0.00000       0.00000
 H   1.909120       1.784420       8.597370           0.00000       0.00000       0.00000
 H   2.828560       2.629990       9.876910           0.00000       0.00000       0.00000
 H   3.701810       1.897670       8.562640           0.00000       0.00000       0.00000
 H   2.657960       3.321590       8.235200           0.00000       0.00000       0.00000
 C   4.711590       8.366190       13.91580           0.00000       0.00000       0.00000
 H   3.986440       7.679740       14.36180           0.00000       0.00000       0.00000
 H   4.223200       8.928910       13.11780           0.00000       0.00000       0.00000
 H   5.536690       7.798740       13.49360           0.00000       0.00000       0.00000
 H   5.085910       9.056620       14.67540           0.00000       0.00000       0.00000
 C   2.674670       10.69830       11.51980           0.00000       0.00000       0.00000
 H   3.717660       11.02460       11.61850           0.00000       0.00000       0.00000
 H   2.627090       9.700550       11.06520           0.00000       0.00000       0.00000
 H   2.109800       11.37600       10.85480           0.00000       0.00000       0.00000
 H   2.197150       10.69690       12.49380           0.00000       0.00000       0.00000
 C  0.8934640       7.791890       13.04910           0.00000       0.00000       0.00000
 H  7.9669498E-02   8.381740       12.61210           0.00000       0.00000       0.00000
 H   1.669820       7.641940       12.29030           0.00000       0.00000       0.00000
 H  0.5065840       6.830810       13.38560           0.00000       0.00000       0.00000
 H   1.311200       8.326700       13.88750           0.00000       0.00000       0.00000
 C   12.59810       2.152540       11.18110           0.00000       0.00000       0.00000
 H   12.65840       1.497830       12.06520           0.00000       0.00000       0.00000
 H   13.24250       1.755090       10.39680           0.00000       0.00000       0.00000
 H   11.57820       2.162970       10.80010           0.00000       0.00000       0.00000
 H   12.89540       3.182120       11.44990           0.00000       0.00000       0.00000
 C   7.880190       7.696710       7.879950           0.00000       0.00000       0.00000
 H   7.721130       8.774250       7.948800           0.00000       0.00000       0.00000
 H   8.054410       7.448720       6.850570           0.00000       0.00000       0.00000
 H   8.761660       7.490390       8.472180           0.00000       0.00000       0.00000
 H   7.033720       7.147590       8.334460           0.00000       0.00000       0.00000
 C   1.185280       6.322010       6.507440           0.00000       0.00000       0.00000
 H  0.3053620       6.383410       7.158910           0.00000       0.00000       0.00000
 H  0.9738520       5.551010       5.767130           0.00000       0.00000       0.00000
 H   2.058270       6.030480       7.086850           0.00000       0.00000       0.00000
 H   1.358530       7.281830       6.021570           0.00000       0.00000       0.00000
 C   6.804180       15.80360       6.602050           0.00000       0.00000       0.00000
 H   7.456010       16.58900       7.030710           0.00000       0.00000       0.00000
 H   6.201440       15.36760       7.409230           0.00000       0.00000       0.00000
 H   6.141750       16.23090       5.845610           0.00000       0.00000       0.00000
 H   7.462380       15.07580       6.121110           0.00000       0.00000       0.00000
 C   12.56360       12.20830       3.359280           0.00000       0.00000       0.00000
 H   13.61710       12.03680       3.663990           0.00000       0.00000       0.00000
 H   11.98320       12.65710       4.163600           0.00000       0.00000       0.00000
 H   12.52030       12.87860       2.504310           0.00000       0.00000       0.00000
 H   12.12680       11.27670       3.040500           0.00000       0.00000       0.00000
 C   8.200550       3.925310       6.128340           0.00000       0.00000       0.00000
 H   7.636670       3.099190       6.604130           0.00000       0.00000       0.00000
 H   7.721560       4.872970       6.403870           0.00000       0.00000       0.00000
 H   9.225450       3.907170       6.501620           0.00000       0.00000       0.00000
 H   8.181060       3.759540       5.036660           0.00000       0.00000       0.00000
 C   10.52020       14.27600       6.499000           0.00000       0.00000       0.00000
 H   11.59200       14.16940       6.510160           0.00000       0.00000       0.00000
 H   10.17390       14.74750       7.429020           0.00000       0.00000       0.00000
 H   10.08810       13.27460       6.396770           0.00000       0.00000       0.00000
 H   10.20710       14.87940       5.647280           0.00000       0.00000       0.00000
 C   7.334130       6.430690       11.63590           0.00000       0.00000       0.00000
 H   6.505170       6.934650       11.15060           0.00000       0.00000       0.00000
 H   7.014110       5.482180       12.10380           0.00000       0.00000       0.00000
 H   7.768580       7.049270       12.42390           0.00000       0.00000       0.00000
 H   8.093930       6.204310       10.88270           0.00000       0.00000       0.00000
 C   14.07680       4.300930       8.293710           0.00000       0.00000       0.00000
 H   14.89480       4.201000       8.993820           0.00000       0.00000       0.00000
 H   13.54410       5.228150       8.495110           0.00000       0.00000       0.00000
 H   13.40100       3.441120       8.360640           0.00000       0.00000       0.00000
 H   14.42380       4.346180       7.262410           0.00000       0.00000       0.00000
 C   8.272970       2.414830       11.76740           0.00000       0.00000       0.00000
 H   7.372110       2.502570       12.37850           0.00000       0.00000       0.00000
 H   8.288380       1.407980       11.31860           0.00000       0.00000       0.00000
 H   8.281410       3.180660       10.99300           0.00000       0.00000       0.00000
 H   9.169310       2.514770       12.37800           0.00000       0.00000       0.00000
 C   4.164260       2.988920       5.476690           0.00000       0.00000       0.00000
 H   4.386410       2.845540       4.421550           0.00000       0.00000       0.00000
 H   3.481310       3.827250       5.608180           0.00000       0.00000       0.00000
 H   5.081170       3.126790       6.059490           0.00000       0.00000       0.00000
 H   3.660810       2.096710       5.851600           0.00000       0.00000       0.00000
 C   7.189490       12.08630       7.305880           0.00000       0.00000       0.00000
 H   7.599690       13.02570       7.648540           0.00000       0.00000       0.00000
 H   6.240660       12.28540       6.791280           0.00000       0.00000       0.00000
 H   7.879130       11.64460       6.588100           0.00000       0.00000       0.00000
 H   7.069660       11.40980       8.146990           0.00000       0.00000       0.00000
 C   14.36970       5.047630       3.736040           0.00000       0.00000       0.00000
 H   13.35030       5.412800       3.824850           0.00000       0.00000       0.00000
 H   14.42270       4.437810       2.826240           0.00000       0.00000       0.00000
 H   14.57400       4.415900       4.594460           0.00000       0.00000       0.00000
 H   15.10600       5.848310       3.719960           0.00000       0.00000       0.00000
 C   10.41130       5.113660       13.77920           0.00000       0.00000       0.00000
 H   11.13690       4.472070       13.29830           0.00000       0.00000       0.00000
 H   9.468620       5.081190       13.23120           0.00000       0.00000       0.00000
 H   10.23400       4.782760       14.80020           0.00000       0.00000       0.00000
 H   10.74830       6.153670       13.78620           0.00000       0.00000       0.00000
 C   9.651030       1.411950       8.336980           0.00000       0.00000       0.00000
 H   9.586450       1.193470       7.266020           0.00000       0.00000       0.00000
 H   8.639630       1.515280       8.708890           0.00000       0.00000       0.00000
 H   10.20870       2.329830       8.510460           0.00000       0.00000       0.00000
 H   10.12890      0.5853570       8.858180           0.00000       0.00000       0.00000
 C  0.1914620       8.885730       9.248340           0.00000       0.00000       0.00000
 H -0.3667310       8.472110       8.395930           0.00000       0.00000       0.00000
 H   1.156250       9.273380       8.900680           0.00000       0.00000       0.00000
 H -0.3587420       9.697930       9.748360           0.00000       0.00000       0.00000
 H  0.3551840       8.084670       9.962840           0.00000       0.00000       0.00000
 C   14.43390       8.734940       5.068420           0.00000       0.00000       0.00000
 H   15.45130       9.118830       5.174510           0.00000       0.00000       0.00000
 H   13.73840       9.388930       5.591560           0.00000       0.00000       0.00000
 H   14.18110       8.701190       4.009180           0.00000       0.00000       0.00000
 H   14.43840       7.730820       5.522210           0.00000       0.00000       0.00000
 C   11.93740       2.402710       5.605150           0.00000       0.00000       0.00000
 H   12.05600       1.608300       6.335870           0.00000       0.00000       0.00000
 H   11.06720       2.161290       4.995150           0.00000       0.00000       0.00000
 H   12.82550       2.460130       4.981000           0.00000       0.00000       0.00000
 H   11.76500       3.348700       6.111110           0.00000       0.00000       0.00000
 C   7.685250       14.37660       10.59010           0.00000       0.00000       0.00000
 H   8.449550       14.98070       10.07530           0.00000       0.00000       0.00000
 H   7.798560       14.46120       11.67820           0.00000       0.00000       0.00000
 H   7.764830       13.32940       10.31080           0.00000       0.00000       0.00000
 H   6.711480       14.76300       10.27120           0.00000       0.00000       0.00000
 C   7.956400      0.7835550       4.176920           0.00000       0.00000       0.00000
 H   8.834450       1.411330       3.975950           0.00000       0.00000       0.00000
 H   8.044290      0.3082580       5.167980           0.00000       0.00000       0.00000
 H   7.047050       1.407090       4.164670           0.00000       0.00000       0.00000
 H   7.886170      6.8537798E-03   3.424220           0.00000       0.00000       0.00000
 C   10.28320       8.640870       11.31540           0.00000       0.00000       0.00000
 H   9.926670       8.667660       10.29650           0.00000       0.00000       0.00000
 H   10.42650       7.603220       11.62950           0.00000       0.00000       0.00000
 H   11.22410       9.204810       11.42840           0.00000       0.00000       0.00000
 H   9.539790       9.066700       11.99590           0.00000       0.00000       0.00000
 C   13.77000       12.19150       7.012650           0.00000       0.00000       0.00000
 H   14.66630       11.56570       7.094950           0.00000       0.00000       0.00000
 H   13.96010       12.97780       6.263300           0.00000       0.00000       0.00000
 H   12.93820       11.55890       6.683240           0.00000       0.00000       0.00000
 H   13.50770       12.60620       7.985360           0.00000       0.00000       0.00000
 C   12.42240       8.652980       8.313000           0.00000       0.00000       0.00000
 H   12.48700       8.352950       9.359840           0.00000       0.00000       0.00000
 H   12.86550       7.910670       7.659780           0.00000       0.00000       0.00000
 H   11.38450       8.828810       8.042520           0.00000       0.00000       0.00000
 H   13.02410       9.562430       8.190560           0.00000       0.00000       0.00000
 C   12.02930       14.58560       10.42600           0.00000       0.00000       0.00000
 H   12.90520       14.29950       11.02720           0.00000       0.00000       0.00000
 H   12.24070       14.34660       9.386880           0.00000       0.00000       0.00000
 H   11.87300       15.65970       10.52550           0.00000       0.00000       0.00000
 H   11.14410       14.05340       10.73660           0.00000       0.00000       0.00000
 C   3.372230       4.417970       12.98020           0.00000       0.00000       0.00000
 H   3.877280       3.550920       12.55910           0.00000       0.00000       0.00000
 H   3.640170       4.487010       14.02470           0.00000       0.00000       0.00000
 H   2.302020       4.330290       12.83660           0.00000       0.00000       0.00000
 H   3.718720       5.319720       12.49370           0.00000       0.00000       0.00000
 C   10.49460       5.106810       9.558300           0.00000       0.00000       0.00000
 H   9.586140       4.813620       9.052470           0.00000       0.00000       0.00000
 H   10.66930       6.141870       9.323880           0.00000       0.00000       0.00000
 H   10.42500       4.993500       10.63890           0.00000       0.00000       0.00000
 H   11.34190       4.548700       9.204090           0.00000       0.00000       0.00000
 C   2.561660       5.226010       2.945320           0.00000       0.00000       0.00000
 H   2.130680       6.069460       3.496640           0.00000       0.00000       0.00000
 H   3.587440       5.068780       3.266410           0.00000       0.00000       0.00000
 H   2.532710       5.412630       1.861170           0.00000       0.00000       0.00000
 H   2.015090       4.316750       3.159090           0.00000       0.00000       0.00000
 C  0.1862210       5.052950       10.25850           0.00000       0.00000       0.00000
 H  0.8052490       5.531200       11.04370           0.00000       0.00000       0.00000
 H -0.8291770       5.480240       10.28340           0.00000       0.00000       0.00000
 H  0.1263950       3.973390       10.41130           0.00000       0.00000       0.00000
 H  0.6512230       5.285890       9.313400           0.00000       0.00000       0.00000
 C   10.06450       11.42950       9.203540           0.00000       0.00000       0.00000
 H   9.618530       12.39670       9.031400           0.00000       0.00000       0.00000
 H   9.432540       10.64490       8.797640           0.00000       0.00000       0.00000
 H   11.00990       11.37350       8.684270           0.00000       0.00000       0.00000
 H   10.21880       11.25340       10.26730           0.00000       0.00000       0.00000
 C   3.541320       6.837780       9.773710           0.00000       0.00000       0.00000
 H   3.769220       7.446280       10.64700           0.00000       0.00000       0.00000
 H   4.415240       6.868380       9.126550           0.00000       0.00000       0.00000
 H   3.318800       5.808020       10.09520           0.00000       0.00000       0.00000
 H   2.685090       7.287280       9.261520           0.00000       0.00000       0.00000
 C   11.93610       8.093810       1.594130           0.00000       0.00000       0.00000
 H   11.92460       7.715090       2.615290           0.00000       0.00000       0.00000
 H   12.00290       7.247850      0.9127580           0.00000       0.00000       0.00000
 H   11.01280       8.611150       1.370990           0.00000       0.00000       0.00000
 H   12.78950       8.762100       1.459230           0.00000       0.00000       0.00000
 C   6.072450       3.982180       9.068660           0.00000       0.00000       0.00000
 H   5.699670       4.035820       10.09950           0.00000       0.00000       0.00000
 H   5.263910       4.317930       8.431960           0.00000       0.00000       0.00000
 H   6.923070       4.647030       8.947820           0.00000       0.00000       0.00000
 H   6.365940       2.948940       8.882140           0.00000       0.00000       0.00000
 C   5.913920     -0.2114930       7.506280           0.00000       0.00000       0.00000
 H   5.131350     -0.2887070       8.265480           0.00000       0.00000       0.00000
 H   6.034830      0.8461050       7.238450           0.00000       0.00000       0.00000
 H   6.854250     -0.5700220       7.927530           0.00000       0.00000       0.00000
 H   5.630420     -0.7920110       6.602370           0.00000       0.00000       0.00000
 C   5.919450       12.41240       13.52400           0.00000       0.00000       0.00000
 H   5.313070       11.59000       13.88740           0.00000       0.00000       0.00000
 H   6.892270       12.03350       13.19410           0.00000       0.00000       0.00000
 H   5.413980       12.90240       12.70000           0.00000       0.00000       0.00000
 H   6.094140       13.12020       14.33640           0.00000       0.00000       0.00000
 C   6.992940       5.314300       15.28230           0.00000       0.00000       0.00000
 H   7.019100       4.406650       14.67070           0.00000       0.00000       0.00000
 H   6.165720       5.935500       14.93850           0.00000       0.00000       0.00000
 H   7.925570       5.854550       15.13850           0.00000       0.00000       0.00000
 H   6.903280       5.042890       16.33490           0.00000       0.00000       0.00000
 C  0.9907840       11.79160       7.010600           0.00000       0.00000       0.00000
 H  0.6296620       11.71950       8.027100           0.00000       0.00000       0.00000
 H  0.1523670       11.74940       6.338810           0.00000       0.00000       0.00000
 H   1.492490       12.74520       6.806630           0.00000       0.00000       0.00000
 H   1.642440       10.94570       6.792820           0.00000       0.00000       0.00000
 C   8.874160       6.394100     -0.3366990           0.00000       0.00000       0.00000
 H   9.246760       7.394610     -0.5705340           0.00000       0.00000       0.00000
 H   8.165790       6.124050      -1.113260           0.00000       0.00000       0.00000
 H   9.705500       5.700070     -0.3878090           0.00000       0.00000       0.00000
 H   8.411540       6.407180      0.6536570           0.00000       0.00000       0.00000
 C   6.595070       10.00110       10.73580           0.00000       0.00000       0.00000
 H   6.152980       10.95520       10.42640           0.00000       0.00000       0.00000
 H   7.686370       10.09470       10.60690           0.00000       0.00000       0.00000
 H   6.378370       9.777560       11.77900           0.00000       0.00000       0.00000
 H   6.186900       9.203890       10.11250           0.00000       0.00000       0.00000
 C   5.141890       7.924280       1.381420           0.00000       0.00000       0.00000
 H   6.037640       7.598370      0.8128070           0.00000       0.00000       0.00000
 H   5.160410       7.519070       2.387400           0.00000       0.00000       0.00000
 H   4.201200       7.653550      0.8937960           0.00000       0.00000       0.00000
 H   5.184750       9.012020       1.464590           0.00000       0.00000       0.00000
 C   6.278930       10.01580       4.486990           0.00000       0.00000       0.00000
 H   5.939670       9.098890       4.002240           0.00000       0.00000       0.00000
 H   6.771450       9.772770       5.431940           0.00000       0.00000       0.00000
 H   6.968830       10.52140       3.834080           0.00000       0.00000       0.00000
 H   5.386030       10.64090       4.661460           0.00000       0.00000       0.00000
 C   8.183020       13.29990       3.495130           0.00000       0.00000       0.00000
 H   8.691690       14.22920       3.749380           0.00000       0.00000       0.00000
 H   7.689040       12.90290       4.384670           0.00000       0.00000       0.00000
 H   8.870190       12.56930       3.101190           0.00000       0.00000       0.00000
 H   7.426980       13.54670       2.755380           0.00000       0.00000       0.00000
 C   4.285760       13.81830       4.644780           0.00000       0.00000       0.00000
 H   4.190340       13.70710       5.717940           0.00000       0.00000       0.00000
 H   3.432150       13.31640       4.191070           0.00000       0.00000       0.00000
 H   4.287900       14.87790       4.395480           0.00000       0.00000       0.00000
 H   5.204510       13.35080       4.318320           0.00000       0.00000       0.00000
 C   11.33120       6.311200       5.775410           0.00000       0.00000       0.00000
 H   12.12370       5.787360       6.320880           0.00000       0.00000       0.00000
 H   10.54950       6.612920       6.465480           0.00000       0.00000       0.00000
 H   11.73140       7.194910       5.271280           0.00000       0.00000       0.00000
 H   10.91460       5.648820       5.038110           0.00000       0.00000       0.00000
 C   5.058930       6.599720       5.732610           0.00000       0.00000       0.00000
 H   4.001720       6.763810       5.493210           0.00000       0.00000       0.00000
 H   5.509200       7.554570       5.991930           0.00000       0.00000       0.00000
 H   5.118860       5.905190       6.565730           0.00000       0.00000       0.00000
 H   5.565420       6.157770       4.870970           0.00000       0.00000       0.00000
 C   8.439530       9.013650       14.76950           0.00000       0.00000       0.00000
 H   9.071150       8.164920       14.48390           0.00000       0.00000       0.00000
 H   9.039890       9.817270       15.13480           0.00000       0.00000       0.00000
 H   7.793120       8.721380       15.58360           0.00000       0.00000       0.00000
 H   7.872040       9.373730       13.90820           0.00000       0.00000       0.00000
 C   13.59590       6.599390       11.73600           0.00000       0.00000       0.00000
 H   13.70460       5.979290       12.64660           0.00000       0.00000       0.00000
 H   14.57530       6.744890       11.28240           0.00000       0.00000       0.00000
 H   12.93990       6.119100       11.00020           0.00000       0.00000       0.00000
 H   13.16820       7.563790       12.01740           0.00000       0.00000       0.00000
 C   8.332910       7.004660       3.594270           0.00000       0.00000       0.00000
 H   9.111040       7.387470       2.930690           0.00000       0.00000       0.00000
 H   8.610710       6.019410       3.960670           0.00000       0.00000       0.00000
 H   7.384080       6.939110       3.047430           0.00000       0.00000       0.00000
 H   8.216550       7.700430       4.414300           0.00000       0.00000       0.00000
 C   2.689370       9.597590       4.163930           0.00000       0.00000       0.00000
 H   3.176200       9.020550       4.944850           0.00000       0.00000       0.00000
 H   1.675150       9.212750       4.023610           0.00000       0.00000       0.00000
 H   2.671010       10.64730       4.404950           0.00000       0.00000       0.00000
 H   3.240820       9.478830       3.245880           0.00000       0.00000       0.00000
 C   3.994450       13.61100       9.252790           0.00000       0.00000       0.00000
 H   4.942440       13.07340       9.192390           0.00000       0.00000       0.00000
 H   4.060620       14.53620       8.688910           0.00000       0.00000       0.00000
 H   3.220050       12.98890       8.836480           0.00000       0.00000       0.00000
 H   3.807610       13.86960       10.29090           0.00000       0.00000       0.00000
 C   16.03720       7.799510       8.094200           0.00000       0.00000       0.00000
 H   16.34410       7.494330       7.090530           0.00000       0.00000       0.00000
 H   15.43360       8.701640       8.027280           0.00000       0.00000       0.00000
 H   16.89420       8.030970       8.737430           0.00000       0.00000       0.00000
 H   15.43150       6.998820       8.531220           0.00000       0.00000       0.00000
